    69
 geometry
 C                    -1.30449823    -0.58521032     0.74313048
 C                    -2.59656355     0.19307376     0.45181533
 C                    -3.70938739    -0.17900399     1.46861437
 C                    -3.68991981    -1.66561661     1.88100858
 C                    -3.03125428    -2.49703607     0.78146297
 C                    -1.54410514    -2.11701905     0.60877428
 N                    -0.00066737    -0.02419267     0.03429259
 C                     1.25756836    -0.84031865     0.50379899
 C                     1.33899831    -1.02239611     2.03420038
 C                     2.77683615    -1.41757251     2.42371070
 C                     3.21704751    -2.70210410     1.71095647
 C                     3.01290121    -2.59811119     0.19463496
 C                     1.56601968    -2.19646026    -0.16506880
 C                     0.18011253     1.49891542     0.61194277
 C                    -0.50407993     2.61981788    -0.19517002
 C                    -0.72996043     3.84869990     0.72576138
 C                     0.39323262     4.02327199     1.76484837
 C                     1.70893743     3.48862568     1.19948181
 C                     1.63791242     1.96338101     0.88560883
 C                    -0.12473308     0.06465847    -1.53168830
 C                     1.18697499     0.42693319    -2.25220970
 C                     0.83909286     1.09897708    -3.60413133
 C                    -0.43041894     0.50035984    -4.24913479
 C                    -0.61801811    -0.95525687    -3.81566302
 C                    -0.80045807    -1.10922365    -2.27794849
 H                    -1.06873091    -0.39762664     1.79183719
 H                    -2.44588771     1.26587362     0.53133178
 H                    -2.94359881    -0.00584800    -0.56700477
 H                    -3.62324446     0.46021778     2.35504981
 H                    -4.66910216     0.07168491     1.00427128
 H                    -4.70527983    -2.01684026     2.08858759
 H                    -3.12424312    -1.79569232     2.81377102
 H                    -3.57033625    -2.35264771    -0.16406635
 H                    -3.08475849    -3.56765198     1.00491852
 H                    -1.19698050    -2.51399447    -0.33817008
 H                    -0.96946348    -2.62583615     1.38762354
 H                     2.07636231    -0.19310968     0.20503138
 H                     0.66071676    -1.81878612     2.35591338
 H                     1.04962896    -0.12166234     2.58026402
 H                     3.46274241    -0.59649534     2.17167307
 H                     2.83122216    -1.54708647     3.51008082
 H                     2.62746141    -3.54635851     2.09535195
 H                     4.26362831    -2.92658675     1.94339411
 H                     3.23666668    -3.55858992    -0.28242598
 H                     3.71527418    -1.86739848    -0.23018572
 H                     1.47801088    -2.15182876    -1.24855608
 H                     0.88906138    -2.97836315     0.18702499
 H                    -0.32429794     1.41547251     1.57367295
 H                    -1.46792820     2.34286769    -0.61778578
 H                     0.13506645     2.89848098    -1.03957330
 H                    -0.79117832     4.73351825     0.08346772
 H                    -1.70174753     3.76341116     1.22628787
 H                     0.49241020     5.07817367     2.03877613
 H                     0.14749428     3.49118279     2.69340333
 H                     2.53375418     3.65936067     1.89790922
 H                     1.95872983     4.04277278     0.28710549
 H                     2.28340002     1.77498225     0.02615587
 H                     2.06399843     1.41736559     1.72767149
 H                    -0.79416108     0.90774884    -1.65522150
 H                     1.81616742     1.10755526    -1.68070684
 H                     1.77922586    -0.47525692    -2.42964955
 H                     0.69964496     2.17634879    -3.45536664
 H                     1.70018068     0.99254872    -4.27221843
 H                    -0.37131852     0.56977089    -5.33957113
 H                    -1.31466822     1.08397643    -3.96010968
 H                    -1.48491375    -1.39838874    -4.31554877
 H                     0.25058925    -1.54154923    -4.13824071
 H                    -1.86477180    -1.14251177    -2.03369657
 H                    -0.37938289    -2.07191751    -1.99601341
