    69
 geometry
 C                    -1.28685134    -0.56853564     0.76937874
 C                    -2.57428627     0.21290636     0.45789069
 C                    -3.68274392    -0.15041674     1.48043944
 C                    -3.74279520    -1.65895380     1.81747509
 C                    -3.03363317    -2.47275547     0.73463467
 C                    -1.53652118    -2.10379242     0.65209168
 N                     0.01404752    -0.01499105     0.04197489
 C                     1.28546471    -0.83285681     0.49475965
 C                     1.35098751    -1.04104924     2.02402144
 C                     2.76780482    -1.48731629     2.43557292
 C                     3.17654401    -2.77572516     1.71232280
 C                     3.02231694    -2.62246507     0.19536049
 C                     1.60145659    -2.16943609    -0.20949472
 C                     0.20273116     1.51364248     0.61121369
 C                    -0.47238311     2.64565341    -0.19430907
 C                    -0.73017903     3.84171198     0.75978114
 C                     0.42527508     4.05716049     1.76286342
 C                     1.72820276     3.51100304     1.17562718
 C                     1.65837030     1.97802267     0.91271610
 C                    -0.14943255     0.06519650    -1.51563031
 C                     1.11583932     0.54695791    -2.25133384
 C                     0.71247719     1.14360322    -3.62604757
 C                    -0.48824309     0.40808508    -4.26524551
 C                    -0.53640432    -1.04573083    -3.78864564
 C                    -0.75332659    -1.16059615    -2.25411146
 H                    -1.04882527    -0.36535307     1.81441403
 H                    -2.42430338     1.28833785     0.52219876
 H                    -2.91913797    -0.00425655    -0.55839299
 H                    -3.53108943     0.43425031     2.39562139
 H                    -4.63624092     0.18546739     1.05933260
 H                    -4.78200672    -1.98395581     1.92804119
 H                    -3.25776570    -1.85242084     2.78345717
 H                    -3.51989703    -2.30471213    -0.23509825
 H                    -3.11232757    -3.54694273     0.93315178
 H                    -1.13360418    -2.51984308    -0.26435476
 H                    -1.01574354    -2.60494990     1.47363100
 H                     2.09811249    -0.16916416     0.21038432
 H                     0.64641745    -1.82223197     2.32662555
 H                     1.07884594    -0.13907771     2.57813672
 H                     3.48669607    -0.68787090     2.20622758
 H                     2.79411646    -1.62812140     3.52171304
 H                     2.54603916    -3.60521756     2.06209871
 H                     4.20946510    -3.04112442     1.96303884
 H                     3.24193023    -3.56848897    -0.31171772
 H                     3.75495344    -1.89288364    -0.17856009
 H                     1.57794924    -2.07038876    -1.29444510
 H                     0.88981708    -2.94985680     0.07014849
 H                    -0.31406196     1.43822828     1.56801131
 H                    -1.42038508     2.37343145    -0.65464491
 H                     0.18802483     2.95766487    -1.00987903
 H                    -0.87146940     4.73450782     0.14118400
 H                    -1.67371864     3.68528464     1.29710114
 H                     0.52879127     5.12002730     2.00233068
 H                     0.20927386     3.55182119     2.71353719
 H                     2.57524739     3.70769483     1.84046869
 H                     1.94669549     4.03716214     0.23862397
 H                     2.33645272     1.75659850     0.08562883
 H                     2.04774867     1.45740701     1.78912486
 H                    -0.89111426     0.85122315    -1.62059917
 H                     1.66123281     1.30513635    -1.69022661
 H                     1.80809445    -0.28797598    -2.39880841
 H                     0.47815522     2.20854480    -3.51101602
 H                     1.58454177     1.09045317    -4.28647073
 H                    -0.41812868     0.44999197    -5.35673551
 H                    -1.42923373     0.91075868    -4.00379736
 H                    -1.33279422    -1.60011020    -4.29558341
 H                     0.40285843    -1.54238173    -4.06328750
 H                    -1.82588099    -1.21306846    -2.04448104
 H                    -0.32143626    -2.10443874    -1.92994716
