    69
 geometry
 C                    -1.28681419    -0.56857558     0.76945370
 C                    -2.57419569     0.21303782     0.45815364
 C                    -3.68277967    -0.15042780     1.48050952
 C                    -3.74278384    -1.65899916     1.81738879
 C                    -3.03368832    -2.47264567     0.73440094
 C                    -1.53651834    -2.10379359     0.65216559
 N                     0.01402538    -0.01493271     0.04202939
 C                     1.28553013    -0.83286008     0.49468982
 C                     1.35114714    -1.04098256     2.02395041
 C                     2.76796833    -1.48730555     2.43541267
 C                     3.17664464    -2.77571971     1.71215168
 C                     3.02235980    -2.62250119     0.19518178
 C                     1.60149480    -2.16940387    -0.20956392
 C                     0.20264562     1.51365134     0.61123323
 C                    -0.47229934     2.64571948    -0.19439501
 C                    -0.73026350     3.84167163     0.75969716
 C                     0.42517368     4.05726665     1.76279226
 C                     1.72813846     3.51104859     1.17570180
 C                     1.65826415     1.97808811     0.91289487
 C                    -0.14951583     0.06523787    -1.51560185
 C                     1.11580248     0.54694237    -2.25125955
 C                     0.71251434     1.14357948    -3.62597719
 C                    -0.48803513     0.40789255    -4.26529641
 C                    -0.53640350    -1.04588587    -3.78854672
 C                    -0.75337009    -1.16060947    -2.25401085
 H                    -1.04864416    -0.36539734     1.81447198
 H                    -2.42404091     1.28843099     0.52261545
 H                    -2.91908290    -0.00389486    -0.55817984
 H                    -3.53145410     0.43422047     2.39575325
 H                    -4.63621037     0.18532184     1.05914586
 H                    -4.78198621    -1.98398886     1.92805522
 H                    -3.25760653    -1.85258499     2.78327534
 H                    -3.51981657    -2.30436377    -0.23535879
 H                    -3.11246125    -3.54686831     0.93270113
 H                    -1.13347731    -2.51993826    -0.26418185
 H                    -1.01602364    -2.60495446     1.47389719
 H                     2.09804739    -0.16903301     0.21024615
 H                     0.64651812    -1.82207499     2.32668742
 H                     1.07915205    -0.13895885     2.57804020
 H                     3.48682900    -0.68785087     2.20602050
 H                     2.79431104    -1.62810277     3.52154801
 H                     2.54589456    -3.60509005     2.06182318
 H                     4.20945560    -3.04139122     1.96295783
 H                     3.24168424    -3.56862272    -0.31184189
 H                     3.75508870    -1.89309710    -0.17889360
 H                     1.57789144    -2.07038806    -1.29451541
 H                     0.88988622    -2.94981127     0.07020274
 H                    -0.31428996     1.43833817     1.56796084
 H                    -1.42022146     2.37348669    -0.65492321
 H                     0.18822600     2.95770162    -1.00988153
 H                    -0.87174651     4.73446630     0.14114581
 H                    -1.67372416     3.68507548     1.29711166
 H                     0.52865919     5.12015914     2.00217392
 H                     0.20915969     3.55200248     2.71348778
 H                     2.57507149     3.70773474     1.84068901
 H                     1.94684823     4.03720642     0.23874607
 H                     2.33645405     1.75646967     0.08593832
 H                     2.04752601     1.45754763     1.78940590
 H                    -0.89121370     0.85126507    -1.62051364
 H                     1.66130385     1.30501306    -1.69009717
 H                     1.80791026    -0.28812190    -2.39869816
 H                     0.47793453     2.20845265    -3.51082149
 H                     1.58467497     1.09063188    -4.28627322
 H                    -0.41776499     0.44962214    -5.35677432
 H                    -1.42907547     0.91058508    -4.00405295
 H                    -1.33296152    -1.60005616    -4.29543384
 H                     0.40274814    -1.54276062    -4.06317365
 H                    -1.82594865    -1.21297374    -2.04446580
 H                    -0.32155313    -2.10442193    -1.92968412
