    69
 geometry
 C                    -1.28796645    -0.57088619     0.76240727
 C                    -2.57556744     0.20734208     0.44376226
 C                    -3.68365422    -0.14637665     1.47080184
 C                    -3.72300702    -1.64629613     1.84479884
 C                    -3.02962532    -2.47829457     0.76580478
 C                    -1.53509078    -2.10537539     0.64637560
 N                     0.01367020    -0.01627350     0.03804525
 C                     1.28447695    -0.83300364     0.49209240
 C                     1.34933773    -1.03998737     2.02155511
 C                     2.76581341    -1.48722012     2.43202441
 C                     3.16919669    -2.77956600     1.71324817
 C                     3.01654512    -2.62959105     0.19595769
 C                     1.59823477    -2.17061077    -0.21160504
 C                     0.20055562     1.51254643     0.60873076
 C                    -0.47218024     2.64546063    -0.19721095
 C                    -0.73591923     3.83833623     0.75890562
 C                     0.41381229     4.05131423     1.76890822
 C                     1.72147060     3.50882668     1.18852661
 C                     1.65497026     1.97734697     0.91292054
 C                    -0.14637045     0.06504733    -1.52020908
 C                     1.12136233     0.54600850    -2.25258673
 C                     0.72348097     1.14391707    -3.62884911
 C                    -0.48447744     0.41859485    -4.26501447
 C                    -0.53278834    -1.03769333    -3.79606664
 C                    -0.75210612    -1.15784078    -2.26251776
 H                    -1.05438866    -0.36547569     1.80804396
 H                    -2.42598547     1.28328745     0.49754631
 H                    -2.91969590    -0.01996700    -0.57048563
 H                    -3.54577804     0.46282288     2.37193460
 H                    -4.64025570     0.16351575     1.03680656
 H                    -4.75695606    -1.97688636     1.98448871
 H                    -3.21660568    -1.81297815     2.80494339
 H                    -3.53432519    -2.33102180    -0.19780427
 H                    -3.09960543    -3.54864404     0.98656642
 H                    -1.15688946    -2.51565902    -0.28319358
 H                    -0.99194103    -2.60936283     1.45113142
 H                     2.09744383    -0.16978886     0.20693825
 H                     0.64496783    -1.82110772     2.32449814
 H                     1.07679392    -0.13830271     2.57583823
 H                     3.48536550    -0.69038565     2.19548464
 H                     2.79610661    -1.62204685     3.51875788
 H                     2.53528734    -3.60552078     2.06524202
 H                     4.20095578    -3.04853525     1.96534889
 H                     3.23178346    -3.57776021    -0.30887558
 H                     3.75243670    -1.90403800    -0.17939774
 H                     1.57689028    -2.07050138    -1.29649309
 H                     0.88256186    -2.94845053     0.06509715
 H                    -0.31781582     1.43557281     1.56454817
 H                    -1.41683278     2.37335569    -0.66449568
 H                     0.19256998     2.96067215    -1.00815405
 H                    -0.87371361     4.73290299     0.14213596
 H                    -1.68229421     3.67990074     1.29063474
 H                     0.51496125     5.11355501     2.01189470
 H                     0.19317468     3.54317884     2.71699616
 H                     2.56185224     3.70043615     1.86323823
 H                     1.94886861     4.04240003     0.25794257
 H                     2.33123258     1.76463068     0.08201863
 H                     2.04764525     1.45051396     1.78382244
 H                    -0.88640314     0.85249193    -1.62599990
 H                     1.66487707     1.30318097    -1.68864822
 H                     1.81264194    -0.28989842    -2.39846474
 H                     0.50179131     2.21193922    -3.51793935
 H                     1.59397636     1.07743875    -4.29026113
 H                    -0.42149371     0.46763340    -5.35661567
 H                    -1.42160752     0.92328720    -3.99331999
 H                    -1.32686289    -1.59170902    -4.30699463
 H                     0.40836490    -1.53116090    -4.07036782
 H                    -1.82550469    -1.20632273    -2.05568294
 H                    -0.32475539    -2.10443969    -1.94001773
