    69
 geometry
 C                    -1.28766889    -0.57036522     0.76248300
 C                    -2.57504485     0.20774214     0.44292993
 C                    -3.68437360    -0.14446976     1.46911312
 C                    -3.72213239    -1.64305200     1.84738353
 C                    -3.02904812    -2.47809114     0.77055063
 C                    -1.53467205    -2.10484097     0.64804264
 N                     0.01396177    -0.01539925     0.03781190
 C                     1.28513636    -0.83268709     0.49124476
 C                     1.35045324    -1.04003615     2.02076721
 C                     2.76659703    -1.48838603     2.43086517
 C                     3.16955132    -2.78040110     1.71100887
 C                     3.01599250    -2.63008397     0.19383368
 C                     1.59796473    -2.16967288    -0.21320457
 C                     0.20034753     1.51228961     0.60789171
 C                    -0.47126884     2.64635073    -0.19808514
 C                    -0.73730039     3.83798051     0.75888132
 C                     0.41045434     4.04936676     1.77129979
 C                     1.71963331     3.50827635     1.19298787
 C                     1.65453091     1.97757420     0.91274018
 C                    -0.14636905     0.06545813    -1.52078968
 C                     1.12126237     0.54690952    -2.25244351
 C                     0.72495476     1.14204804    -3.63050216
 C                    -0.48315348     0.41656693    -4.26584541
 C                    -0.53192466    -1.03928565    -3.79614080
 C                    -0.75173057    -1.15791433    -2.26254915
 H                    -1.05409802    -0.36377514     1.80792425
 H                    -2.42520089     1.28381668     0.49405190
 H                    -2.91913589    -0.02076750    -0.57113252
 H                    -3.55037706     0.46828220     2.36839383
 H                    -4.64051518     0.16162263     1.03140676
 H                    -4.75592378    -1.97359619     1.98879707
 H                    -3.21571097    -1.80708147     2.80794014
 H                    -3.53502955    -2.33476812    -0.19301899
 H                    -3.09786168    -3.54765275     0.99542182
 H                    -1.15922753    -2.51401766    -0.28310225
 H                    -0.98928140    -2.60911953     1.45096663
 H                     2.09790690    -0.16911734     0.20636272
 H                     0.64550327    -1.82025323     2.32432168
 H                     1.07921100    -0.13767032     2.57453029
 H                     3.48721396    -0.69196862     2.19625805
 H                     2.79598294    -1.62465313     3.51745578
 H                     2.53576797    -3.60641277     2.06320262
 H                     4.20121520    -3.04992548     1.96263461
 H                     3.22919220    -3.57893303    -0.31073531
 H                     3.75326920    -1.90645534    -0.18239539
 H                     1.57807731    -2.06834885    -1.29805614
 H                     0.88176864    -2.94764009     0.06165431
 H                    -0.31831272     1.43719715     1.56367113
 H                    -1.41498147     2.37494776    -0.66776773
 H                     0.19496373     2.96289811    -1.00735183
 H                    -0.87511997     4.73338218     0.14335531
 H                    -1.68439985     3.67814258     1.28896958
 H                     0.51122115     5.11092757     2.01754674
 H                     0.18767040     3.53918853     2.71780496
 H                     2.55739190     3.69839402     1.87139625
 H                     1.95071033     4.04463532     0.26493692
 H                     2.32996838     1.76781372     0.08037484
 H                     2.04894388     1.44847756     1.78146018
 H                    -0.88639980     0.85286603    -1.62631043
 H                     1.66245819     1.30605765    -1.68889647
 H                     1.81485706    -0.28754207    -2.39572042
 H                     0.50347131     2.21037655    -3.52184164
 H                     1.59592615     1.07430133    -4.29106113
 H                    -0.42137518     0.46584775    -5.35751052
 H                    -1.42028706     0.92124383    -3.99408090
 H                    -1.32692815    -1.59264819    -4.30636767
 H                     0.40812295    -1.53455810    -4.07094605
 H                    -1.82514876    -1.20662842    -2.05626475
 H                    -0.32463961    -2.10428465    -1.93906111
