    69
 geometry
 C                    -1.28895355    -0.56953735     0.75977548
 C                    -2.57665840     0.20699469     0.43732572
 C                    -3.68583960    -0.14142947     1.46501848
 C                    -3.71602270    -1.63700203     1.85442827
 C                    -3.02889963    -2.47744965     0.77782920
 C                    -1.53522938    -2.10419882     0.64665984
 N                     0.01306880    -0.01526015     0.03587832
 C                     1.28304633    -0.83382915     0.49021773
 C                     1.34759869    -1.03953442     2.01973529
 C                     2.76398962    -1.48611887     2.43196488
 C                     3.17302114    -2.77472704     1.70969805
 C                     3.01698802    -2.62693034     0.19250022
 C                     1.59765964    -2.17008983    -0.21424038
 C                     0.20105232     1.51191300     0.60647984
 C                    -0.46888195     2.64764633    -0.19906455
 C                    -0.73637016     3.83684479     0.76061582
 C                     0.40658576     4.04099530     1.77974545
 C                     1.71845653     3.50520864     1.20249180
 C                     1.65544612     1.97621778     0.91093051
 C                    -0.14699579     0.06632444    -1.52317981
 C                     1.12196887     0.54507846    -2.25440370
 C                     0.72928870     1.13714583    -3.63468690
 C                    -0.48105536     0.41576009    -4.26903489
 C                    -0.53679286    -1.03946898    -3.79841623
 C                    -0.75304685    -1.15692297    -2.26393490
 H                    -1.05579721    -0.36211605     1.80516975
 H                    -2.42768606     1.28342718     0.48073212
 H                    -2.92085478    -0.02927572    -0.57488146
 H                    -3.55638707     0.47858526     2.35997989
 H                    -4.64282706     0.15628137     1.02333656
 H                    -4.74731116    -1.97001964     2.00776332
 H                    -3.20047726    -1.79236160     2.81169527
 H                    -3.53974509    -2.33877271    -0.18379947
 H                    -3.09702528    -3.54587879     1.00818276
 H                    -1.16400984    -2.51369470    -0.28617902
 H                    -0.98560784    -2.60812623     1.44686609
 H                     2.09629483    -0.17015042     0.20635104
 H                     0.64300587    -1.81929107     2.32530241
 H                     1.07703477    -0.13596068     2.57179209
 H                     3.48288693    -0.68594005     2.20532666
 H                     2.78809111    -1.62882688     3.51788081
 H                     2.54351272    -3.60390023     2.06220816
 H                     4.20617750    -3.03976244     1.96010360
 H                     3.23175876    -3.57634982    -0.31017672
 H                     3.75165748    -1.90209238    -0.18658119
 H                     1.57803504    -2.06766381    -1.29887990
 H                     0.88310562    -2.94985807     0.05998485
 H                    -0.31834853     1.43743224     1.56188267
 H                    -1.41196718     2.37717573    -0.67051241
 H                     0.19888268     2.96557387    -1.00648742
 H                    -0.86857022     4.73501033     0.14791846
 H                    -1.68635858     3.67768445     1.28571799
 H                     0.50529073     5.10056165     2.03511030
 H                     0.17985019     3.52295867     2.72103463
 H                     2.55446019     3.69233662     1.88381117
 H                     1.95024259     4.04765874     0.27816055
 H                     2.32754848     1.77396483     0.07397309
 H                     2.05423793     1.44102537     1.77376674
 H                    -0.88502355     0.85567854    -1.62822822
 H                     1.66303381     1.30531850    -1.69228727
 H                     1.81506803    -0.29054773    -2.39327059
 H                     0.51278474     2.20687100    -3.52982320
 H                     1.60105644     1.06355051    -4.29369304
 H                    -0.42056077     0.46468740    -5.36077980
 H                    -1.41578957     0.92439915    -3.99608815
 H                    -1.33721026    -1.58726685    -4.30617121
 H                     0.39907615    -1.54123238    -4.07562375
 H                    -1.82568134    -1.20849421    -2.05467290
 H                    -0.32226549    -2.10175068    -1.94075674
