    69
 geometry
 C                    -1.29486099    -0.58057794     0.74735725
 C                    -2.58562648     0.19714769     0.43861682
 C                    -3.68932654    -0.14963164     1.47190056
 C                    -3.69405188    -1.63778410     1.88339580
 C                    -3.03466641    -2.48110665     0.79237037
 C                    -1.54251014    -2.11425013     0.62987799
 N                     0.00481819    -0.02017916     0.03207003
 C                     1.27454151    -0.83460858     0.49061913
 C                     1.34243382    -1.03410192     2.02082214
 C                     2.76481515    -1.46427481     2.42989042
 C                     3.19859861    -2.74451747     1.70824546
 C                     3.01532232    -2.61696786     0.19217367
 C                     1.58412513    -2.18221733    -0.19491732
 C                     0.18839596     1.50438086     0.60717255
 C                    -0.48457327     2.63418740    -0.19959599
 C                    -0.73705517     3.84076032     0.74189566
 C                     0.39050179     4.03100615     1.77621067
 C                     1.70786766     3.49476446     1.21446422
 C                     1.64281858     1.96924836     0.90308473
 C                    -0.13496611     0.06407739    -1.52992712
 C                     1.15184683     0.50176729    -2.25322451
 C                     0.78017831     1.12239041    -3.62548956
 C                    -0.45132256     0.45050081    -4.27165605
 C                    -0.57416972    -1.00280706    -3.80986200
 C                    -0.77241332    -1.13632393    -2.27333219
 H                    -1.06209954    -0.38152176     1.79429517
 H                    -2.43677784     1.27255293     0.48126177
 H                    -2.93629416    -0.03574408    -0.57176040
 H                    -3.57118306     0.48646935     2.35689509
 H                    -4.65040031     0.12478976     1.02373332
 H                    -4.71471831    -1.97925205     2.08273689
 H                    -3.14116839    -1.77439557     2.82296995
 H                    -3.56205068    -2.33363750    -0.15905851
 H                    -3.10683796    -3.54976576     1.01863752
 H                    -1.19678053    -2.51896761    -0.31491084
 H                    -0.97507905    -2.62316738     1.41391715
 H                     2.08795939    -0.17542458     0.20078539
 H                     0.64720996    -1.82187815     2.32725976
 H                     1.06491765    -0.13449862     2.57507763
 H                     3.46960969    -0.65160052     2.20268300
 H                     2.79424088    -1.60659658     3.51543836
 H                     2.60678802    -3.59314779     2.07908221
 H                     4.24569353    -2.96890487     1.94063344
 H                     3.23625845    -3.56844903    -0.30316949
 H                     3.73287335    -1.88524389    -0.20658804
 H                     1.53210751    -2.11132057    -1.27980435
 H                     0.88637649    -2.96098583     0.12092720
 H                    -0.32805225     1.42400104     1.56333731
 H                    -1.43630493     2.35976724    -0.65123946
 H                     0.17150559     2.93362818    -1.02384977
 H                    -0.83211202     4.73411766     0.11570799
 H                    -1.70063893     3.71581242     1.25082418
 H                     0.48749071     5.08762616     2.04372280
 H                     0.15114678     3.50565973     2.71030097
 H                     2.52750820     3.66477818     1.91965824
 H                     1.96551627     4.05031430     0.30496105
 H                     2.30350738     1.77693446     0.05543167
 H                     2.05236373     1.42474833     1.75442913
 H                    -0.84450992     0.87693581    -1.64540839
 H                     1.72089355     1.23704176    -1.68526130
 H                     1.81213778    -0.35854722    -2.39936553
 H                     0.60037165     2.19729078    -3.50702083
 H                     1.65024732     1.02925053    -4.28448561
 H                    -0.37340244     0.49554644    -5.36241773
 H                    -1.36803100     0.99835402    -4.01454010
 H                    -1.40976340    -1.50106212    -4.31158116
 H                     0.32833725    -1.55003078    -4.11006034
 H                    -1.84205631    -1.17289935    -2.04831913
 H                    -0.35050860    -2.09098149    -1.96853693
