    69
 geometry
 C                    -1.28841648    -0.57092123     0.76399800
 C                    -2.57596268     0.20782700     0.44639373
 C                    -3.68416892    -0.14883469     1.47223302
 C                    -3.72716458    -1.65092642     1.83748595
 C                    -3.03055552    -2.47777747     0.75655208
 C                    -1.53568427    -2.10549949     0.64608515
 N                     0.01298363    -0.01695076     0.03933608
 C                     1.28321586    -0.83400596     0.49356030
 C                     1.34815943    -1.04056218     2.02280276
 C                     2.76558241    -1.48581446     2.43348488
 C                     3.17024208    -2.77792238     1.71526880
 C                     3.01780345    -2.62796809     0.19776209
 C                     1.59880487    -2.17121844    -0.21007604
 C                     0.20126745     1.51296655     0.61007305
 C                    -0.47180301     2.64534676    -0.19606698
 C                    -0.73204722     3.83978515     0.75915918
 C                     0.42033556     4.05418774     1.76608076
 C                     1.72552957     3.50887657     1.18292082
 C                     1.65624239     1.97658244     0.91341859
 C                    -0.14767078     0.06468447    -1.51860311
 C                     1.11907009     0.54728510    -2.25235299
 C                     0.71814297     1.14620909    -3.62710399
 C                    -0.48731829     0.41767170    -4.26442774
 C                    -0.53335598    -1.03845242    -3.79453784
 C                    -0.75220569    -1.15874914    -2.26094351
 H                    -1.05357499    -0.36704660     1.80968521
 H                    -2.42678347     1.28364155     0.50281066
 H                    -2.91961000    -0.01851372    -0.56820189
 H                    -3.54240229     0.45403822     2.37709086
 H                    -4.64033973     0.16743789     1.04205956
 H                    -4.76187603    -1.98155580     1.97116853
 H                    -3.22440440    -1.82337581     2.79849516
 H                    -3.53116167    -2.32443535    -0.20826288
 H                    -3.10333030    -3.54930502     0.97070293
 H                    -1.15064103    -2.51711190    -0.28004013
 H                    -0.99771670    -2.60916521     1.45474506
 H                     2.09628372    -0.17066540     0.20898799
 H                     0.64507041    -1.82304222     2.32568707
 H                     1.07501833    -0.13943183     2.57765464
 H                     3.48360690    -0.68794503     2.19593972
 H                     2.79565859    -1.62009218     3.52025995
 H                     2.53621136    -3.60403908     2.06666397
 H                     4.20211230    -3.04639228     1.96733521
 H                     3.23611784    -3.57477496    -0.30816873
 H                     3.75158734    -1.89942862    -0.17609081
 H                     1.57745380    -2.07107573    -1.29493359
 H                     0.88425035    -2.94987968     0.06730749
 H                    -0.31735434     1.43537264     1.56570483
 H                    -1.41841367     2.37307615    -0.65921392
 H                     0.19069998     2.95835213    -1.00955873
 H                    -0.87084408     4.73355606     0.14144155
 H                    -1.67707326     3.68292119     1.29374552
 H                     0.52280070     5.11724195     2.00492984
 H                     0.20188786     3.54915870     2.71629702
 H                     2.56957019     3.70207884     1.85252062
 H                     1.94806343     4.03863747     0.24893112
 H                     2.33345963     1.75925965     0.08455750
 H                     2.04652373     1.45255785     1.78717092
 H                    -0.88834662     0.85172362    -1.62406003
 H                     1.66396530     1.30375534    -1.68876347
 H                     1.81006317    -0.28864472    -2.39992427
 H                     0.49321240     2.21332659    -3.51407917
 H                     1.58903198     1.08393356    -4.28850153
 H                    -0.42291527     0.46565323    -5.35596973
 H                    -1.42570186     0.92066337    -3.99387675
 H                    -1.32586798    -1.59456029    -4.30551698
 H                     0.40934332    -1.52961210    -4.06766756
 H                    -1.82527749    -1.20916295    -2.05284850
 H                    -0.32237103    -2.10447040    -1.93922528
