    69
 geometry
 C                    -1.33953071    -0.50451212     0.74756539
 C                    -2.61244569     0.19342941     0.39691940
 C                    -3.73858089    -0.09735386     1.40398277
 C                    -3.67346725    -1.54082436     1.91985382
 C                    -3.01426404    -2.41042044     0.89019400
 C                    -1.56650632    -2.02202242     0.63140951
 N                    -0.03468955     0.02517247     0.05486250
 C                     1.23135137    -0.78587804     0.44816481
 C                     1.33373417    -1.00860283     1.94954770
 C                     2.78555331    -1.47324016     2.28560900
 C                     3.17634130    -2.73043152     1.54244375
 C                     2.97852076    -2.53155273     0.05226668
 C                     1.56680945    -2.09311831    -0.30075790
 C                     0.17621198     1.47981567     0.62044497
 C                    -0.46847878     2.62513480    -0.17649887
 C                    -0.72684186     3.78055860     0.77527017
 C                     0.41369421     3.93186908     1.80269349
 C                     1.71505188     3.38537464     1.21562494
 C                     1.61298984     1.86598514     0.91639210
 C                    -0.17870389     0.13258705    -1.46613018
 C                     1.06874581     0.56880377    -2.12920050
 C                     0.72237986     1.16529567    -3.47880015
 C                    -0.33330456     0.26829815    -4.24921602
 C                    -0.38079537    -1.11092234    -3.62827974
 C                    -0.76423971    -1.09017549    -2.18523255
 H                    -1.11780387    -0.28610689     1.81992412
 H                    -2.47879413     1.26723037     0.33035491
 H                    -2.96713794    -0.15214833    -0.61634400
 H                    -3.70560419     0.60267459     2.21732760
 H                    -4.69036313     0.04780261     0.93007540
 H                    -4.70453694    -1.90108122     2.13365552
 H                    -3.14232781    -1.59018806     2.84526864
 H                    -3.60420273    -2.37044290    -0.08091013
 H                    -3.02915381    -3.47647530     1.19499282
 H                    -1.26497741    -2.39300711    -0.35207735
 H                    -0.93447609    -2.52194708     1.36265098
 H                     2.01528197    -0.11543992     0.15646445
 H                     0.64062530    -1.77238390     2.24949483
 H                     1.10013448    -0.12652427     2.53281137
 H                     3.48398838    -0.69035680     2.03847557
 H                     2.85865618    -1.63980388     3.34781357
 H                     2.57449577    -3.55903671     1.90650076
 H                     4.20506989    -2.98358660     1.74266329
 H                     3.22147455    -3.45423879    -0.50448101
 H                     3.68550548    -1.78369179    -0.28805031
 H                     1.57010118    -1.97109190    -1.39121327
 H                     0.83697599    -2.87883193    -0.04320885
 H                    -0.32998119     1.41482915     1.55122051
 H                    -1.43127063     2.37392666    -0.67353417
 H                     0.23496304     2.91942323    -0.97404612
 H                    -0.82642187     4.65674516     0.19659958
 H                    -1.66758445     3.62132197     1.27336679
 H                     0.50459518     4.98849558     2.08473040
 H                     0.17648972     3.42238812     2.69129902
 H                     2.57311065     3.52707291     1.88676431
 H                     1.93208839     3.91337840     0.31637972
 H                     2.31808297     1.63679137     0.05839015
 H                     1.99809564     1.32110656     1.80018202
 H                    -0.91375608     0.88692400    -1.57340382
 H                     1.59875418     1.29988606    -1.57219323
 H                     1.74204158    -0.27392530    -2.26768601
 H                     0.34274191     2.14944461    -3.35134643
 H                     1.60680424     1.28287143    -4.05046569
 H                    -0.05097565     0.17921655    -5.25463619
 H                    -1.31151180     0.69927689    -4.23623677
 H                    -1.07801402    -1.74392762    -4.15995857
 H                     0.61316339    -1.58451803    -3.71642731
 H                    -1.81487081    -1.06901811    -2.10924166
 H                    -0.43199809    -2.03782504    -1.74158250
