    69
 geometry
 C                    -1.28757544    -0.56938789     0.76764496
 C                    -2.57509956     0.21039395     0.45271787
 C                    -3.68405830    -0.14936758     1.47610226
 C                    -3.73537346    -1.65467248     1.82695748
 C                    -3.03259201    -2.47470983     0.74478658
 C                    -1.53620962    -2.10450995     0.65022921
 N                     0.01361023    -0.01558360     0.04097944
 C                     1.28424434    -0.83371266     0.49415927
 C                     1.34910047    -1.04260010     2.02339626
 C                     2.76649769    -1.48697163     2.43455751
 C                     3.17392626    -2.77644527     1.71263676
 C                     3.02098029    -2.62341379     0.19560259
 C                     1.60068198    -2.16977870    -0.21093443
 C                     0.20196677     1.51328494     0.61056370
 C                    -0.47118122     2.64569822    -0.19577088
 C                    -0.72967985     3.84161601     0.75828160
 C                     0.42400368     4.05700080     1.76331975
 C                     1.72780117     3.50886497     1.17989974
 C                     1.65711259     1.97635210     0.91518460
 C                    -0.14908016     0.06477244    -1.51674153
 C                     1.11652048     0.54779116    -2.25134561
 C                     0.71384693     1.14522848    -3.62599770
 C                    -0.48809002     0.41148361    -4.26456860
 C                    -0.53437275    -1.04321069    -3.79079878
 C                    -0.75254948    -1.16032863    -2.25683036
 H                    -1.05085193    -0.36565184     1.81285020
 H                    -2.42621402     1.28627398     0.51101023
 H                    -2.91899467    -0.01252507    -0.56267247
 H                    -3.53884016     0.44465473     2.38622178
 H                    -4.63837485     0.17636673     1.04878091
 H                    -4.77213322    -1.98276728     1.95095354
 H                    -3.24035305    -1.83756231     2.79001290
 H                    -3.52485655    -2.31272413    -0.22295203
 H                    -3.10910157    -3.54770595     0.95007762
 H                    -1.14129798    -2.51777054    -0.27100142
 H                    -1.00794771    -2.60708043     1.46592978
 H                     2.09724608    -0.16994231     0.21082998
 H                     0.64658033    -1.82603007     2.32489369
 H                     1.07437584    -0.14191137     2.57827888
 H                     3.48468642    -0.68769327     2.20248417
 H                     2.79430242    -1.62565493     3.52088927
 H                     2.54154038    -3.60451379     2.06248279
 H                     4.20608350    -3.04399743     1.96434701
 H                     3.24149621    -3.56901240    -0.31179385
 H                     3.75347977    -1.89316176    -0.17733553
 H                     1.57924697    -2.06910861    -1.29579235
 H                     0.88819012    -2.95039653     0.06607817
 H                    -0.31727909     1.43778606     1.56606910
 H                    -1.41933294     2.37357728    -0.65600168
 H                     0.18907374     2.95721265    -1.01165455
 H                    -0.87036906     4.73465605     0.13999817
 H                    -1.67397650     3.68461626     1.29418303
 H                     0.52868745     5.12020846     2.00065411
 H                     0.20550512     3.55414520     2.71470105
 H                     2.57267765     3.70387314     1.84801840
 H                     1.95027443     4.03565055     0.24423629
 H                     2.33572322     1.75564848     0.08826859
 H                     2.04505731     1.45400539     1.79111721
 H                    -0.89067004     0.85097321    -1.62170811
 H                     1.66072713     1.30584215    -1.68893001
 H                     1.80928357    -0.28672967    -2.39864473
 H                     0.48149880     2.21061323    -3.51095336
 H                     1.58545462     1.09065740    -4.28694063
 H                    -0.42089359     0.45633542    -5.35610301
 H                    -1.42845907     0.91358183    -3.99943982
 H                    -1.32861603    -1.59892087    -4.29967838
 H                     0.40638887    -1.53750736    -4.06479360
 H                    -1.82533206    -1.21288071    -2.04800797
 H                    -0.32110410    -2.10474494    -1.93350305
