    69
 geometry
 C                    -1.29548577    -0.57775996     0.75418069
 C                    -2.58713757     0.19727447     0.43260990
 C                    -3.70792390    -0.16072383     1.44354158
 C                    -3.70324421    -1.64572331     1.86336724
 C                    -3.02086893    -2.49265123     0.78915715
 C                    -1.53215210    -2.11432818     0.64331657
 N                     0.00758079    -0.01644362     0.04113014
 C                     1.27398178    -0.83568940     0.49644068
 C                     1.35053476    -1.03500563     2.02557951
 C                     2.78026121    -1.45531295     2.42225611
 C                     3.21262726    -2.73713286     1.69909055
 C                     3.00989463    -2.61385487     0.18475422
 C                     1.57225415    -2.18742853    -0.18596388
 C                     0.19196266     1.50652516     0.61409894
 C                    -0.48556619     2.63249829    -0.19862853
 C                    -0.73099257     3.84891140     0.73223501
 C                     0.39257520     4.03886513     1.77113136
 C                     1.71342862     3.49728923     1.22297213
 C                     1.64542659     1.97195581     0.90762912
 C                    -0.13523941     0.06401501    -1.52021113
 C                     1.15541846     0.48172461    -2.24550772
 C                     0.79229009     1.11176596    -3.61515339
 C                    -0.45634901     0.46577766    -4.25723977
 C                    -0.60722032    -0.98877343    -3.80375690
 C                    -0.78634242    -1.13132115    -2.26416570
 H                    -1.06641775    -0.37727714     1.80187669
 H                    -2.43724084     1.27295309     0.47909051
 H                    -2.92090475    -0.03438713    -0.58442254
 H                    -3.61834965     0.48129102     2.32739072
 H                    -4.66355444     0.09438399     0.97347009
 H                    -4.72513387    -1.99562658     2.04091182
 H                    -3.16846525    -1.77239897     2.81432585
 H                    -3.53866138    -2.35684289    -0.16980869
 H                    -3.08987091    -3.56037121     1.02196922
 H                    -1.16572603    -2.52052430    -0.29216212
 H                    -0.97229083    -2.61325364     1.43926572
 H                     2.08856684    -0.18080986     0.19769717
 H                     0.66239162    -1.82805634     2.33432565
 H                     1.06929299    -0.13678381     2.58135851
 H                     3.47904499    -0.64104294     2.18282579
 H                     2.81975692    -1.58826550     3.50885904
 H                     2.62954502    -3.58678646     2.07982233
 H                     4.26366737    -2.95409043     1.91886337
 H                     3.22592273    -3.56626621    -0.31177616
 H                     3.71999437    -1.88201845    -0.22587319
 H                     1.50438264    -2.12589430    -1.27168001
 H                     0.87634737    -2.96103298     0.14683907
 H                    -0.32683675     1.42917636     1.56948472
 H                    -1.43989263     2.35234653    -0.64032947
 H                     0.16803708     2.92246489    -1.02874286
 H                    -0.81063741     4.73793870     0.09768839
 H                    -1.69868169     3.73823190     1.23581697
 H                     0.49198699     5.09654645     2.03367123
 H                     0.14485378     3.51728158     2.70531354
 H                     2.52561641     3.66345166     1.93756448
 H                     1.98334470     4.05003264     0.31527000
 H                     2.30791501     1.77785001     0.06179987
 H                     2.05423843     1.42791851     1.75969801
 H                    -0.83941491     0.88069709    -1.63852926
 H                     1.73889975     1.20251487    -1.67414757
 H                     1.80187634    -0.38813641    -2.39955790
 H                     0.63371080     2.18993730    -3.49620014
 H                     1.65613722     1.00127054    -4.27925629
 H                    -0.38219316     0.51102513    -5.34812684
 H                    -1.35950526     1.03144249    -3.99094153
 H                    -1.45716477    -1.46509075    -4.30223486
 H                     0.28304776    -1.54904354    -4.11618928
 H                    -1.85272672    -1.17324303    -2.02761336
 H                    -0.35760919    -2.08748714    -1.97097857
