    69
 geometry
 C                    -1.28696691    -0.56881881     0.76948648
 C                    -2.57449005     0.21229793     0.45775483
 C                    -3.68303369    -0.15100542     1.48013499
 C                    -3.74220866    -1.65944910     1.81780586
 C                    -3.03357250    -2.47305853     0.73456875
 C                    -1.53633278    -2.10409277     0.65234068
 N                     0.01388402    -0.01478963     0.04224280
 C                     1.28536436    -0.83296818     0.49465724
 C                     1.35081419    -1.04128275     2.02391147
 C                     2.76758174    -1.48735999     2.43552284
 C                     3.17622499    -2.77568927     1.71214274
 C                     3.02248791    -2.62222998     0.19519025
 C                     1.60170107    -2.16932447    -0.20991401
 C                     0.20255032     1.51362911     0.61139451
 C                    -0.47219721     2.64580180    -0.19428730
 C                    -0.72956590     3.84216376     0.75937272
 C                     0.42615717     4.05819127     1.76200156
 C                     1.72874620     3.51074306     1.17526062
 C                     1.65819404     1.97776874     0.91368862
 C                    -0.14983476     0.06545690    -1.51548218
 C                     1.11551917     0.54748425    -2.25102813
 C                     0.71233632     1.14426463    -3.62568320
 C                    -0.48790467     0.40822826    -4.26519276
 C                    -0.53623570    -1.04561001    -3.78852137
 C                    -0.75333455    -1.16052281    -2.25403190
 H                    -1.04900890    -0.36522690     1.81447078
 H                    -2.42472615     1.28779250     0.52142727
 H                    -2.91917520    -0.00531240    -0.55848741
 H                    -3.53264162     0.43425477     2.39512097
 H                    -4.63648466     0.18371105     1.05798979
 H                    -4.78113536    -1.98479128     1.92996743
 H                    -3.25565926    -1.85228376     2.78316659
 H                    -3.51975347    -2.30475327    -0.23514177
 H                    -3.11204202    -3.54728970     0.93289754
 H                    -1.13340031    -2.52032250    -0.26403554
 H                    -1.01606053    -2.60508003     1.47429632
 H                     2.09782835    -0.16893925     0.21051423
 H                     0.64636436    -1.82265735     2.32638027
 H                     1.07815895    -0.13946036     2.57798044
 H                     3.48628296    -0.68768917     2.20634484
 H                     2.79392668    -1.62838858     3.52161561
 H                     2.54472384    -3.60474044     2.06123473
 H                     4.20868532    -3.04216752     1.96354115
 H                     3.24195545    -3.56829473    -0.31185408
 H                     3.75513761    -1.89267653    -0.17878499
 H                     1.57815315    -2.07005674    -1.29484910
 H                     0.88999806    -2.94973848     0.06960856
 H                    -0.31471748     1.43845056     1.56798381
 H                    -1.42046335     2.37340223    -0.65406021
 H                     0.18773611     2.95708134    -1.01052132
 H                    -0.87116021     4.73467162     0.14043947
 H                    -1.67285837     3.68581184     1.29713325
 H                     0.53028298     5.12128939     2.00015853
 H                     0.21015181     3.55406481     2.71327938
 H                     2.57583704     3.70758148     1.84000560
 H                     1.94774823     4.03612762     0.23792063
 H                     2.33681070     1.75512277     0.08732266
 H                     2.04661677     1.45757823     1.79078022
 H                    -0.89179978     0.85125196    -1.62024944
 H                     1.66074771     1.30553620    -1.68957180
 H                     1.80755686    -0.28764834    -2.39854296
 H                     0.47698244     2.20890565    -3.51002485
 H                     1.58460301     1.09193466    -4.28588365
 H                    -0.41768469     0.44990257    -5.35666419
 H                    -1.42896050     0.91084764    -4.00384438
 H                    -1.33282912    -1.59951239    -4.29559859
 H                     0.40296159    -1.54250808    -4.06304388
 H                    -1.82598325    -1.21285017    -2.04481102
 H                    -0.32157709    -2.10428038    -1.92945492
