    69
 geometry
 C                    -1.28689011    -0.56873462     0.76945692
 C                    -2.57435091     0.21261462     0.45792597
 C                    -3.68297573    -0.15082421     1.48020844
 C                    -3.74249678    -1.65933071     1.81748062
 C                    -3.03357570    -2.47291407     0.73437118
 C                    -1.53636763    -2.10398460     0.65227251
 N                     0.01395595    -0.01485774     0.04214372
 C                     1.28547860    -0.83293867     0.49471010
 C                     1.35100517    -1.04105950     2.02398479
 C                     2.76776382    -1.48733207     2.43557487
 C                     3.17643799    -2.77571537     1.71228663
 C                     3.02247006    -2.62239948     0.19531097
 C                     1.60166429    -2.16938248    -0.20965271
 C                     0.20259408     1.51363053     0.61130811
 C                    -0.47224607     2.64577804    -0.19433056
 C                    -0.72982585     3.84197600     0.75951475
 C                     0.42578904     4.05772818     1.76235708
 C                     1.72852407     3.51088224     1.17536579
 C                     1.65825328     1.97792027     0.91322781
 C                    -0.14969872     0.06537378    -1.51555175
 C                     1.11561708     0.54727150    -2.25118786
 C                     0.71233126     1.14399593    -3.62584696
 C                    -0.48812628     0.40817991    -4.26517491
 C                    -0.53647902    -1.04566327    -3.78855032
 C                    -0.75333691    -1.16056342    -2.25401449
 H                    -1.04882155    -0.36530455     1.81445307
 H                    -2.42438029     1.28805510     0.52199998
 H                    -2.91912051    -0.00466515    -0.55836624
 H                    -3.53226536     0.43416612     2.39532670
 H                    -4.63640081     0.18431449     1.05834156
 H                    -4.78155687    -1.98452656     1.92886401
 H                    -3.25664134    -1.85253863     2.78310520
 H                    -3.51967680    -2.30459755    -0.23538646
 H                    -3.11218229    -3.54715035     0.93264709
 H                    -1.13326798    -2.52022013    -0.26401736
 H                    -1.01608721    -2.60501649     1.47421248
 H                     2.09792496    -0.16895573     0.21039859
 H                     0.64638111    -1.82217930     2.32668297
 H                     1.07880577    -0.13904694     2.57799248
 H                     3.48659222    -0.68779353     2.20632908
 H                     2.79400916    -1.62823791     3.52169053
 H                     2.54524180    -3.60489503     2.06161984
 H                     4.20903767    -3.04185217     1.96345408
 H                     3.24179135    -3.56852207    -0.31170193
 H                     3.75522616    -1.89298245    -0.17871289
 H                     1.57812839    -2.07025550    -1.29460578
 H                     0.89000950    -2.94978817     0.06999291
 H                    -0.31448296     1.43842023     1.56798698
 H                    -1.42036125     2.37347605    -0.65443645
 H                     0.18795969     2.95735463    -1.01022927
 H                    -0.87130055     4.73461941     0.14075052
 H                    -1.67319018     3.68563192     1.29715988
 H                     0.52961315     5.12071283     2.00117516
 H                     0.20980008     3.55298067     2.71332209
 H                     2.57557324     3.70763872     1.84018600
 H                     1.94734014     4.03664513     0.23820356
 H                     2.33664463     1.75569220     0.08658099
 H                     2.04710539     1.45759252     1.79005449
 H                    -0.89154128     0.85127088    -1.62033848
 H                     1.66102576     1.30529870    -1.68986745
 H                     1.80767185    -0.28784322    -2.39871281
 H                     0.47740774     2.20875694    -3.51040940
 H                     1.58451551     1.09131850    -4.28613001
 H                    -0.41800101     0.44993811    -5.35665339
 H                    -1.42914146     0.91081946    -4.00375016
 H                    -1.33317264    -1.59958846    -4.29545572
 H                     0.40262828    -1.54258813    -4.06329333
 H                    -1.82591861    -1.21301091    -2.04453895
 H                    -0.32142479    -2.10431593    -1.92962284
