    69
 geometry
 C                    -1.28782678    -0.57075490     0.76234540
 C                    -2.57537951     0.20741285     0.44349111
 C                    -3.68371866    -0.14570892     1.47042840
 C                    -3.72239756    -1.64507287     1.84628385
 C                    -3.02941081    -2.47835639     0.76807023
 C                    -1.53496452    -2.10523408     0.64685805
 N                     0.01388797    -0.01590832     0.03784376
 C                     1.28491555    -0.83274452     0.49169090
 C                     1.34981574    -1.03998230     2.02120575
 C                     2.76601625    -1.48785313     2.43154804
 C                     3.16905659    -2.78015710     1.71239437
 C                     3.01622668    -2.62996055     0.19518646
 C                     1.59814157    -2.17024406    -0.21225452
 C                     0.20043648     1.51252477     0.60835548
 C                    -0.47203725     2.64571963    -0.19760180
 C                    -0.73678548     3.83810000     0.75879531
 C                     0.41219906     4.05068335     1.76962269
 C                     1.72053662     3.50878686     1.19021508
 C                     1.65472090     1.97760704     0.91282732
 C                    -0.14621466     0.06525338    -1.52054166
 C                     1.12156970     0.54623741    -2.25251491
 C                     0.72446689     1.14320787    -3.62945992
 C                    -0.48368589     0.41806898    -4.26532780
 C                    -0.53230703    -1.03808061    -3.79621130
 C                    -0.75200484    -1.15770986    -2.26270018
 H                    -1.05431971    -0.36488382     1.80791240
 H                    -2.42564851     1.28341363     0.49647999
 H                    -2.91955154    -0.02005070    -0.57074486
 H                    -3.54719128     0.46500790     2.37071997
 H                    -4.64021681     0.16264846     1.03509962
 H                    -4.75627048    -1.97554938     1.98697864
 H                    -3.21569513    -1.81060736     2.80645993
 H                    -3.53484720    -2.33280458    -0.19542693
 H                    -3.09866117    -3.54837414     0.99061720
 H                    -1.15827813    -2.51491160    -0.28361675
 H                    -0.99062663    -2.60939796     1.45063688
 H                     2.09778928    -0.16941818     0.20645932
 H                     0.64504696    -1.82067489     2.32416787
 H                     1.07765188    -0.13806490     2.57534447
 H                     3.48612617    -0.69133193     2.19566267
 H                     2.79605965    -1.62307746     3.51824413
 H                     2.53513429    -3.60607857     2.06447587
 H                     4.20073080    -3.04943587     1.96444055
 H                     3.23041312    -3.57848918    -0.30947822
 H                     3.75284878    -1.90538531    -0.18055197
 H                     1.57724832    -2.06978785    -1.29715736
 H                     0.88210535    -2.94797693     0.06378264
 H                    -0.31797731     1.43608106     1.56419755
 H                    -1.41622813     2.37375050    -0.66598279
 H                     0.19331310     2.96151874    -1.00787695
 H                    -0.87472110     4.73289060     0.14240816
 H                    -1.68342684     3.67896434     1.28987051
 H                     0.51314724     5.11269145     2.01374055
 H                     0.19078834     3.54184986     2.71715864
 H                     2.55971401     3.69982589     1.86660271
 H                     1.94968790     4.04344068     0.26070257
 H                     2.33065274     1.76613503     0.08129701
 H                     2.04812296     1.44985842     1.78284131
 H                    -0.88622897     0.85269916    -1.62622172
 H                     1.66413293     1.30416007    -1.68862050
 H                     1.81364195    -0.28917831    -2.39740920
 H                     0.50304004     2.21138357    -3.51938290
 H                     1.59506344     1.07604986    -4.29062162
 H                    -0.42102518     0.46723852    -5.35694606
 H                    -1.42076600     0.92289189    -3.99368986
 H                    -1.32673468    -1.59177168    -4.30697354
 H                     0.40840035    -1.53230109    -4.07068309
 H                    -1.82549425    -1.20590254    -2.05627833
 H                    -0.32519476    -2.10440142    -1.93969658
