    69
 geometry
 C                    -1.28754211    -0.57000717     0.76285838
 C                    -2.57464645     0.20828496     0.44279406
 C                    -3.68490497    -0.14340413     1.46813300
 C                    -3.72253576    -1.64161121     1.84734316
 C                    -3.02890861    -2.47755671     0.77149070
 C                    -1.53451644    -2.10443292     0.64888296
 N                     0.01401459    -0.01503924     0.03795831
 C                     1.28526336    -0.83278007     0.49103075
 C                     1.35082950    -1.04016103     2.02051184
 C                     2.76696906    -1.48888620     2.43055679
 C                     3.16986248    -2.78059705     1.71016918
 C                     3.01609397    -2.63011753     0.19298795
 C                     1.59822419    -2.16911526    -0.21410721
 C                     0.20054062     1.51215964     0.60766765
 C                    -0.47035957     2.64690312    -0.19836045
 C                    -0.73727146     3.83778646     0.75921646
 C                     0.40982867     4.04845354     1.77255506
 C                     1.71946952     3.50784747     1.19475247
 C                     1.65474188     1.97744263     0.91274081
 C                    -0.14683956     0.06560196    -1.52081116
 C                     1.12024962     0.54840808    -2.25248907
 C                     0.72397920     1.14154587    -3.63144605
 C                    -0.48334178     0.41462223    -4.26635199
 C                    -0.53121947    -1.04092299    -3.79581631
 C                    -0.75121890    -1.15847645    -2.26218586
 H                    -1.05356725    -0.36307983     1.80819431
 H                    -2.42455900     1.28437819     0.49277300
 H                    -2.91848730    -0.02105207    -0.57120594
 H                    -3.55244520     0.47016529     2.36708609
 H                    -4.64066749     0.16176806     1.02896301
 H                    -4.75644704    -1.97213519     1.98826763
 H                    -3.21709341    -1.80518285     2.80845680
 H                    -3.53486781    -2.33540554    -0.19229212
 H                    -3.09780313    -3.54684766     0.99759071
 H                    -1.15933515    -2.51330566    -0.28244084
 H                    -0.98873288    -2.60886674     1.45142934
 H                     2.09788759    -0.16882359     0.20657851
 H                     0.64569408    -1.82001374     2.32453395
 H                     1.08053747    -0.13741443     2.57408585
 H                     3.48780828    -0.69236502     2.19706988
 H                     2.79555836    -1.62614710     3.51704718
 H                     2.53576497    -3.60651646     2.06207851
 H                     4.20136827    -3.05061856     1.96166170
 H                     3.22874313    -3.57910163    -0.31160280
 H                     3.75378430    -1.90699190    -0.18338000
 H                     1.57966289    -2.06656767    -1.29887316
 H                     0.88175936    -2.94735200     0.05926569
 H                    -0.31843987     1.43803932     1.56335526
 H                    -1.41379912     2.37586796    -0.66878599
 H                     0.19650153     2.96396720    -1.00690112
 H                    -0.87548572     4.73368590     0.14450742
 H                    -1.68447602     3.67709620     1.28892248
 H                     0.51043101     5.10978606     2.01995573
 H                     0.18629336     3.53750997     2.71849729
 H                     2.55660503     3.69740621     1.87405857
 H                     1.95128554     4.04524802     0.26747623
 H                     2.32988277     1.76858054     0.07991316
 H                     2.04975117     1.44745970     1.78067043
 H                    -0.88734201     0.85260069    -1.62597034
 H                     1.65996953     1.30897973    -1.68939170
 H                     1.81562213    -0.28483481    -2.39428917
 H                     0.50163586     2.20984861    -3.52405921
 H                     1.59544277     1.07391100    -4.29134932
 H                    -0.42221596     0.46377110    -5.35806188
 H                    -1.42087739     0.91852433    -3.99446392
 H                    -1.32609007    -1.59485730    -4.30559452
 H                     0.40887915    -1.53622934    -4.07034184
 H                    -1.82457058    -1.20808336    -2.05590680
 H                    -0.32331495    -2.10427112    -1.93811743
