    69
 geometry
 C                    -1.28744185    -0.56923727     0.76756970
 C                    -2.57495993     0.21050094     0.45231936
 C                    -3.68431168    -0.14886174     1.47548734
 C                    -3.73470882    -1.65371917     1.82783467
 C                    -3.03220621    -2.47471361     0.74615577
 C                    -1.53596510    -2.10432991     0.65039279
 N                     0.01362379    -0.01556469     0.04080108
 C                     1.28416665    -0.83385419     0.49410135
 C                     1.34911323    -1.04277368     2.02335691
 C                     2.76661036    -1.48712979     2.43435955
 C                     3.17374829    -2.77682921     1.71256553
 C                     3.02064025    -2.62373536     0.19548640
 C                     1.60043833    -2.16969187    -0.21108814
 C                     0.20183286     1.51316754     0.61021805
 C                    -0.47086829     2.64585133    -0.19621129
 C                    -0.72982563     3.84146523     0.75813226
 C                     0.42345028     4.05646115     1.76375358
 C                     1.72751405     3.50849230     1.18080101
 C                     1.65688033     1.97612711     0.91516755
 C                    -0.14905770     0.06468015    -1.51689178
 C                     1.11634001     0.54812408    -2.25136002
 C                     0.71365494     1.14525242    -3.62621009
 C                    -0.48827456     0.41139908    -4.26460650
 C                    -0.53391044    -1.04329639    -3.79100501
 C                    -0.75234423    -1.16042254    -2.25709913
 H                    -1.05073530    -0.36544702     1.81279147
 H                    -2.42606783     1.28639568     0.50962777
 H                    -2.91892281    -0.01318684    -0.56287527
 H                    -3.54011916     0.44635895     2.38500135
 H                    -4.63858655     0.17565174     1.04717414
 H                    -4.77128244    -1.98210655     1.95275571
 H                    -3.23932616    -1.83554835     2.79090920
 H                    -3.52500296    -2.31372347    -0.22148350
 H                    -3.10861539    -3.54752216     0.95249389
 H                    -1.14192709    -2.51707712    -0.27141090
 H                    -1.00672558    -2.60718690     1.46528003
 H                     2.09726731    -0.17007411     0.21107544
 H                     0.64679033    -1.82624283     2.32512141
 H                     1.07466304    -0.14197390     2.57817776
 H                     3.48506150    -0.68816065     2.20201193
 H                     2.79434783    -1.62548617     3.52072630
 H                     2.54121965    -3.60471954     2.06262251
 H                     4.20583023    -3.04468134     1.96411727
 H                     3.24102904    -3.56925959    -0.31211724
 H                     3.75345912    -1.89363439    -0.17716505
 H                     1.57980866    -2.06859949    -1.29594387
 H                     0.88786179    -2.95046840     0.06518229
 H                    -0.31774553     1.43821507     1.56556447
 H                    -1.41889546     2.37406072    -0.65681434
 H                     0.18965878     2.95771813    -1.01174287
 H                    -0.87055660     4.73479326     0.14027283
 H                    -1.67423186     3.68420964     1.29375744
 H                     0.52821680     5.11957551     2.00158703
 H                     0.20436897     3.55341052     2.71487943
 H                     2.57182883     3.70313321     1.84972034
 H                     1.95074356     4.03578365     0.24558712
 H                     2.33544373     1.75588295     0.08808409
 H                     2.04491739     1.45337270     1.79082366
 H                    -0.89060895     0.85089266    -1.62179643
 H                     1.66016898     1.30645262    -1.68895588
 H                     1.80976036    -0.28594125    -2.39838839
 H                     0.48141314     2.21069506    -3.51149023
 H                     1.58528646     1.09069261    -4.28713321
 H                    -0.42166132     0.45676902    -5.35614685
 H                    -1.42878775     0.91300878    -3.99910126
 H                    -1.32773033    -1.59948220    -4.29995962
 H                     0.40705067    -1.53726286    -4.06502274
 H                    -1.82506686    -1.21334380    -2.04838342
 H                    -0.32072640    -2.10482690    -1.93395269
