    30
 geometry
 C                     1.55626548     1.99529224     0.60979661
 N                     0.14447762     1.99232169     0.08760430
 C                    -0.80260918     1.83235955     1.24488419
 C                    -0.12569366     3.30659990    -0.59651550
 C                    -0.06072185     0.85549052    -0.96523102
 C                     0.12694894    -0.55114755    -0.46566774
 C                    -0.96958863    -1.37244993    -0.10516030
 C                    -2.41524256    -0.93067869    -0.20582121
 C                    -0.69718144    -2.67886059     0.32401958
 C                     0.60222516    -3.17941780     0.38611229
 C                     1.67536200    -2.38157193    -0.01062451
 C                     1.42943069    -1.08183994    -0.44168619
 H                     1.66717834     2.82947248     1.30453610
 H                     2.24448820     2.11677558    -0.22803245
 H                     1.74879395     1.05232140     1.11924035
 H                    -0.63509762     0.85777615     1.70265455
 H                    -0.60959163     2.62744408     1.96698673
 H                    -1.82587082     1.90697165     0.87673359
 H                     0.57421975     3.42706628    -1.42476572
 H                     0.00775564     4.11605360     0.12312529
 H                    -1.15003705     3.30899951    -0.97184301
 H                     0.65780267     1.09570504    -1.75310148
 H                    -1.06623065     1.02628761    -1.35255006
 H                    -2.64561389    -0.47228035    -1.17491336
 H                    -3.07999982    -1.79121736    -0.09803227
 H                    -2.70037977    -0.21544765     0.57498724
 H                    -1.52828719    -3.32185152     0.59961046
 H                     0.77205991    -4.19897791     0.71892704
 H                     2.68829276    -2.77142570    -0.00242450
 H                     2.26124820    -0.47430432    -0.79045282
