    30
 geometry
 C                     1.55717902     1.99686989     0.60866134
 N                     0.14506420     1.99192318     0.08689654
 C                    -0.80093254     1.83088657     1.24532154
 C                    -0.12738033     3.30651012    -0.59592973
 C                    -0.05951496     0.85536648    -0.96542245
 C                     0.12696270    -0.55111072    -0.46514096
 C                    -0.96995031    -1.37182004    -0.10440981
 C                    -2.41545447    -0.93031911    -0.20724724
 C                    -0.69803121    -2.67843710     0.32453076
 C                     0.60111996    -3.17928035     0.38770843
 C                     1.67468536    -2.38204267    -0.00920078
 C                     1.42929093    -1.08253005    -0.44106521
 H                     1.66653365     2.82985318     1.30503692
 H                     2.24478419     2.12137606    -0.22928243
 H                     1.75173518     1.05320065     1.11610114
 H                    -0.62984913     0.85764446     1.70463530
 H                    -0.61012095     2.62808306     1.96563118
 H                    -1.82461686     1.90104394     0.87745829
 H                     0.56871390     3.42633822    -1.42752719
 H                     0.01007837     4.11579837     0.12309432
 H                    -1.15345000     3.30952848    -0.96655620
 H                     0.65921560     1.09511443    -1.75333290
 H                    -1.06445158     1.02692261    -1.35407370
 H                    -2.64307127    -0.46515913    -1.17372078
 H                    -3.08009314    -1.79193545    -0.10744843
 H                    -2.70376146    -0.22070599     0.57765080
 H                    -1.52948490    -3.32114853     0.59976669
 H                     0.77056753    -4.19841008     0.72192483
 H                     2.68743135    -2.77231580    -0.00055022
 H                     2.26120475    -0.47577865    -0.79111385
