    30
 geometry
 C                     1.55673012     1.99563893     0.60922403
 N                     0.14477076     1.99214636     0.08749314
 C                    -0.80183934     1.83178321     1.24520080
 C                    -0.12621846     3.30653152    -0.59611598
 C                    -0.06059179     0.85555505    -0.96523735
 C                     0.12684008    -0.55108057    -0.46553652
 C                    -0.96979783    -1.37218351    -0.10482592
 C                    -2.41538434    -0.93073699    -0.20684467
 C                    -0.69743049    -2.67859752     0.32446486
 C                     0.60193816    -3.17913514     0.38702364
 C                     1.67513723    -2.38153248    -0.00998306
 C                     1.42929844    -1.08195192    -0.44149762
 H                     1.66730866     2.82943762     1.30448540
 H                     2.24462094     2.11807972    -0.22875375
 H                     1.74990617     1.05253368     1.11821812
 H                    -0.63323827     0.85756059     1.70335895
 H                    -0.60926345     2.62737135     1.96687670
 H                    -1.82527268     1.90536137     0.87731217
 H                     0.57251467     3.42698423    -1.42538559
 H                     0.00841352     4.11590147     0.12340242
 H                    -1.15112679     3.30913907    -0.96992834
 H                     0.65777826     1.09560138    -1.75333856
 H                    -1.06605868     1.02658367    -1.35261624
 H                    -2.64472073    -0.47100222    -1.17554982
 H                    -3.08011344    -1.79158570    -0.10118494
 H                    -2.70190832    -0.21671141     0.57461561
 H                    -1.52863305    -3.32152729     0.59995962
 H                     0.77169349    -4.19850987     0.72040352
 H                     2.68802304    -2.77146625    -0.00179711
 H                     2.26102769    -0.47472231    -0.79104734
