    30
 geometry
 C                     1.55680679     1.99977626     0.60851835
 N                     0.14494876     1.99207811     0.08575159
 C                    -0.80128507     1.82866860     1.24352919
 C                    -0.12978589     3.30604254    -0.59729229
 C                    -0.05527580     0.85491764    -0.96689537
 C                     0.12817357    -0.55148124    -0.46535790
 C                    -0.96967360    -1.37114167    -0.10525375
 C                    -2.41505884    -0.92756828    -0.20339706
 C                    -0.69940649    -2.67817670     0.32343633
 C                     0.59912180    -3.18045666     0.38714023
 C                     1.67382976    -2.38400933    -0.00849554
 C                     1.42997592    -1.08421986    -0.44029583
 H                     1.66312536     2.82987540     1.30870268
 H                     2.24432555     2.13036269    -0.22861349
 H                     1.75458005     1.05403228     1.11076342
 H                    -0.62352404     0.85868572     1.70712639
 H                    -0.61810559     2.63067113     1.96040363
 H                    -1.82495390     1.88828917     0.87383692
 H                     0.55968219     3.42233185    -1.43487462
 H                     0.01551462     4.11638742     0.11893532
 H                    -1.15874419     3.31067701    -0.95977612
 H                     0.66785030     1.09364707    -1.75101507
 H                    -1.05792141     1.02713990    -1.36109814
 H                    -2.64076978    -0.44186425    -1.16000483
 H                    -3.07950253    -1.79132899    -0.12305334
 H                    -2.70459886    -0.23516045     0.59630460
 H                    -1.53160925    -3.32000170     0.59837567
 H                     0.76740016    -4.19969093     0.72166405
 H                     2.68626963    -2.77508840     0.00180081
 H                     2.26301435    -0.47792827    -0.78846965
