    30
 geometry
 C                     1.55417011     1.99541181     0.61290535
 N                     0.14364032     1.99335046     0.08695446
 C                    -0.80580343     1.83814117     1.24318277
 C                    -0.12300482     3.30699744    -0.59986273
 C                    -0.06092332     0.85489942    -0.96247933
 C                     0.12742894    -0.55085967    -0.45992620
 C                    -0.96890754    -1.37392133    -0.10296955
 C                    -2.41454699    -0.93125772    -0.19904433
 C                    -0.69596610    -2.68280413     0.31866936
 C                     0.60355097    -3.18361150     0.37807272
 C                     1.67651604    -2.38338180    -0.01410488
 C                     1.42988219    -1.08201192    -0.43947295
 H                     1.66620002     2.83495010     1.30107722
 H                     2.24493965     2.10734193    -0.22430037
 H                     1.74185485     1.05577637     1.13056627
 H                    -0.63969435     0.86483404     1.70429252
 H                    -0.61327491     2.63551093     1.96303069
 H                    -1.82831133     1.91236431     0.87262068
 H                     0.58075276     3.42614590    -1.42517647
 H                     0.00746017     4.11723028     0.11954279
 H                    -1.14568712     3.30918207    -0.98003281
 H                     0.65714335     1.09335312    -1.75145562
 H                    -1.06613094     1.02429568    -1.35158735
 H                    -2.64812543    -0.47192667    -1.16701893
 H                    -3.07967573    -1.79136334    -0.08956579
 H                    -2.69697263    -0.21622149     0.58288518
 H                    -1.52710621    -3.32736495     0.59103473
 H                     0.77372281    -4.20461697     0.70631483
 H                     2.68970013    -2.77250849    -0.00668022
 H                     2.26157210    -0.47246902    -0.78507586
