    30
 geometry
 C                     1.55587883     1.99513626     0.61026655
 N                     0.14424514     1.99242214     0.08754658
 C                    -0.80321041     1.83273244     1.24455599
 C                    -0.12534799     3.30669516    -0.59683043
 C                    -0.06069092     0.85542369    -0.96530481
 C                     0.12707059    -0.55118080    -0.46571808
 C                    -0.96942666    -1.37265651    -0.10536916
 C                    -2.41512430    -0.93057169    -0.20487708
 C                    -0.69699712    -2.67909104     0.32362358
 C                     0.60237730    -3.17968485     0.38535497
 C                     1.67550054    -2.38169304    -0.01110875
 C                     1.42958934    -1.08183776    -0.44180842
 H                     1.66687095     2.82956663     1.30466808
 H                     2.24441503     2.11600419    -0.22739874
 H                     1.74795685     1.05219668     1.11992704
 H                    -0.63637376     0.85790216     1.70206543
 H                    -0.60998151     2.62754347     1.96687693
 H                    -1.82635159     1.90785729     0.87615510
 H                     0.57534064     3.42715336    -1.42441718
 H                     0.00735316     4.11613651     0.12294733
 H                    -1.14931408     3.30895118    -0.97318092
 H                     0.65796999     1.09577025    -1.75300635
 H                    -1.06616925     1.02610444    -1.35277994
 H                    -2.64624741    -0.47271225    -1.17405167
 H                    -3.07991212    -1.79090006    -0.09581365
 H                    -2.69919292    -0.21474896     0.57575002
 H                    -1.52802941    -3.32210043     0.59927803
 H                     0.77223347    -4.19934285     0.71778286
 H                     2.68843640    -2.77152410    -0.00280851
 H                     2.26153478    -0.47408549    -0.78992862
