    30
 geometry
 C                     1.55423028     1.99675326     0.61294893
 N                     0.14362520     1.99325094     0.08680424
 C                    -0.80607731     1.83806539     1.24327301
 C                    -0.12320543     3.30699289    -0.59881482
 C                    -0.06081382     0.85358300    -0.96284298
 C                     0.12819481    -0.55144579    -0.46054150
 C                    -0.96841187    -1.37447128    -0.10338155
 C                    -2.41262732    -0.93177283    -0.19946566
 C                    -0.69666671    -2.68347799     0.31845525
 C                     0.60217218    -3.18395942     0.37776286
 C                     1.67568966    -2.38417895    -0.01443397
 C                     1.43078803    -1.08247086    -0.44016801
 H                     1.66698024     2.83832918     1.29771461
 H                     2.24544741     2.10518353    -0.22351952
 H                     1.74206443     1.05922633     1.13308247
 H                    -0.63947482     0.86607018     1.70642420
 H                    -0.61533661     2.63676625     1.96114818
 H                    -1.82843102     1.90915285     0.87310413
 H                     0.57971230     3.42808343    -1.42408084
 H                     0.00674589     4.11662924     0.12043433
 H                    -1.14531224     3.30956081    -0.97914989
 H                     0.65608080     1.09348033    -1.75197202
 H                    -1.06639166     1.02247815    -1.35033640
 H                    -2.64592993    -0.47283679    -1.16779718
 H                    -3.08045860    -1.78944893    -0.08908029
 H                    -2.69286761    -0.21573132     0.58266606
 H                    -1.52763069    -3.32716117     0.59071056
 H                     0.77150570    -4.20492798     0.70623729
 H                     2.68890067    -2.77347524    -0.00694754
 H                     2.26190158    -0.47278117    -0.78583776
