    30
 geometry
 C                     1.55475809     1.99636766     0.61302864
 N                     0.14415788     1.99549304     0.08842241
 C                    -0.80612899     1.84222256     1.24363317
 C                    -0.12149815     3.30766652    -0.60194430
 C                    -0.06254701     0.85601214    -0.95762801
 C                     0.12788537    -0.54963515    -0.45249669
 C                    -0.96873204    -1.37392965    -0.09895190
 C                    -2.41520420    -0.93262853    -0.19735490
 C                    -0.69616391    -2.68552089     0.31476805
 C                     0.60381201    -3.18626252     0.37316594
 C                     1.67649140    -2.38439727    -0.01508875
 C                     1.42978344    -1.08140671    -0.43579584
 H                     1.67058933     2.84205384     1.29352075
 H                     2.24554782     2.09780028    -0.22582404
 H                     1.73850073     1.06176757     1.14168404
 H                    -0.63671607     0.87213161     1.71057492
 H                    -0.61713926     2.64355526     1.96061769
 H                    -1.82862286     1.91263426     0.87152538
 H                     0.58343426     3.42395842    -1.42689230
 H                     0.00904227     4.12005238     0.11554943
 H                    -1.14439857     3.30955715    -0.98215597
 H                     0.65402186     1.08974401    -1.74967832
 H                    -1.06866763     1.02195438    -1.34579881
 H                    -2.64637811    -0.47250567    -1.16538361
 H                    -3.07719536    -1.79563303    -0.09188640
 H                    -2.70192426    -0.21989567     0.58487420
 H                    -1.52776022    -3.33167756     0.58221772
 H                     0.77418341    -4.20861369     0.69738265
 H                     2.68973747    -2.77372862    -0.00977141
 H                     2.26153488    -0.47167010    -0.78191753
