    33
 geometry
 C                     0.97233099    -3.06208458     1.10221682
 N                    -0.21299299    -3.02039658     0.17584085
 C                    -1.43313159    -2.60336413     0.95079829
 C                    -0.43720849    -4.39266098    -0.40121653
 C                     0.04483674    -2.03616672    -1.00917557
 C                     0.29783235    -0.60918397    -0.62323263
 C                     1.62214265    -0.16174823    -0.34676187
 C                     1.86142537     1.15220501    -0.02067588
 C                     0.80320637     2.09874703     0.04023300
 C                     1.02361211     3.46146047     0.36957511
 C                    -0.02665702     4.35159937     0.39984938
 C                    -1.34368476     3.92257440     0.10016847
 C                    -1.59151252     2.60824936    -0.22400889
 C                    -0.53048527     1.66379743    -0.26014441
 C                    -0.74532817     0.30226378    -0.59150376
 H                     0.76369598    -3.77266902     1.90370174
 H                     1.13735168    -2.06641853     1.51193248
 H                     1.84964331    -3.38465294     0.53923572
 H                    -2.29401775    -2.60133044     0.28026196
 H                    -1.27148668    -1.60385789     1.35237510
 H                    -1.59424729    -3.31752921     1.75998986
 H                     0.45126239    -4.69358883    -0.95837456
 H                    -0.62075899    -5.09574313     0.41294316
 H                    -1.30095848    -4.36208129    -1.06705343
 H                    -0.84393570    -2.13190605    -1.63767330
 H                     0.89583728    -2.47030640    -1.54084051
 H                     2.45401739    -0.85802552    -0.41939730
 H                     2.87570057     1.48632295     0.17998649
 H                     2.03387544     3.79212780     0.59454633
 H                     0.15150795     5.39257740     0.65215642
 H                    -2.15887367     4.63934559     0.12553175
 H                    -2.60076919     2.27873930    -0.45751027
 H                    -1.75658319    -0.01264738    -0.84336407
