    33
 geometry
 C                     0.95837216    -3.01761040     1.11316560
 N                    -0.21587402    -2.99022423     0.16863494
 C                    -1.44614001    -2.54601647     0.91635166
 C                    -0.44700310    -4.38478185    -0.36365513
 C                     0.06658677    -2.06025096    -1.02428378
 C                     0.32045238    -0.62176396    -0.66563320
 C                     1.64028725    -0.16954724    -0.39733347
 C                     1.87722605     1.14450908    -0.05965854
 C                     0.81284308     2.08172575     0.02315685
 C                     1.02510415     3.44087460     0.36884498
 C                    -0.03749742     4.31916094     0.42882430
 C                    -1.35359569     3.88058987     0.14473332
 C                    -1.59665944     2.56678706    -0.19579000
 C                    -0.52749176     1.63581254    -0.26335344
 C                    -0.73500264     0.27655092    -0.60781262
 H                     0.76158858    -3.76634642     1.88139591
 H                     1.06606135    -2.03396435     1.56659870
 H                     1.85413364    -3.28131699     0.55140646
 H                    -2.27528349    -2.47044644     0.21332453
 H                    -1.24597548    -1.58133562     1.37826832
 H                    -1.66710665    -3.29150814     1.68117576
 H                     0.44753487    -4.70756602    -0.89629749
 H                    -0.64663717    -5.05109645     0.47536828
 H                    -1.30215065    -4.36334946    -1.03913808
 H                    -0.79701395    -2.15900691    -1.68697545
 H                     0.92637224    -2.49762538    -1.53913399
 H                     2.48349021    -0.85238289    -0.46887896
 H                     2.89402545     1.46978407     0.13682469
 H                     2.02980326     3.79259164     0.58401070
 H                     0.14238730     5.35651022     0.69293819
 H                    -2.18066972     4.58201744     0.19091639
 H                    -2.61152413     2.24637134    -0.41587718
 H                    -1.74499659    -0.05349722    -0.84170829
