    33
 geometry
 C                     0.97327766    -3.06342640     1.10138412
 N                    -0.21258137    -3.02101100     0.17551873
 C                    -1.43211411    -2.60473578     0.95222292
 C                    -0.43741169    -4.39298539    -0.40211407
 C                     0.04386762    -2.03558237    -1.00862196
 C                     0.29718804    -0.60895140    -0.62158099
 C                     1.62150462    -0.16184519    -0.34448087
 C                     1.86087242     1.15229068    -0.01902802
 C                     0.80296577     2.09924129     0.04049154
 C                     1.02350487     3.46208247     0.36928428
 C                    -0.02648872     4.35260355     0.39829069
 C                    -1.34359033     3.92365915     0.09808355
 C                    -1.59143878     2.60916345    -0.22518820
 C                    -0.53063988     1.66445105    -0.26024117
 C                    -0.74556282     0.30299083    -0.59116574
 H                     0.76523347    -3.77491282     1.90218479
 H                     1.13855578    -2.06795650     1.51144084
 H                     1.85035985    -3.38511811     0.53746171
 H                    -2.29320095    -2.60026044     0.28192592
 H                    -1.26960072    -1.60598678     1.35530223
 H                    -1.59352083    -3.32065280     1.75975640
 H                     0.45036538    -4.69330892    -0.96073314
 H                    -0.61993714    -5.09656830     0.41181404
 H                    -1.30183673    -4.36183112    -1.06704731
 H                    -0.84562399    -2.13086964    -1.63616168
 H                     0.89383569    -2.46959162    -1.54210065
 H                     2.45332399    -0.85843013    -0.41473313
 H                     2.87519800     1.48602119     0.18222557
 H                     2.03360716     3.79278178     0.59515660
 H                     0.15168001     5.39376005     0.64993559
 H                    -2.15848269     4.64081016     0.12241619
 H                    -2.60080563     2.27996558    -0.45865513
 H                    -1.75685713    -0.01214843    -0.84263371
