    33
 geometry
 C                     0.97346993    -3.06408385     1.10127483
 N                    -0.21252332    -3.02134212     0.17537651
 C                    -1.43204491    -2.60557303     0.95262429
 C                    -0.43736782    -4.39325918    -0.40265043
 C                     0.04357718    -2.03543907    -1.00813309
 C                     0.29688558    -0.60892066    -0.62025645
 C                     1.62132819    -0.16174741    -0.34358584
 C                     1.86088837     1.15254408    -0.01870872
 C                     0.80288962     2.09961127     0.04063050
 C                     1.02354172     3.46262870     0.36898496
 C                    -0.02635222     4.35312004     0.39744660
 C                    -1.34341751     3.92415923     0.09727215
 C                    -1.59140706     2.60967436    -0.22538202
 C                    -0.53064020     1.66484716    -0.25999087
 C                    -0.74569891     0.30326682    -0.59057210
 H                     0.76564235    -3.77623623     1.90154713
 H                     1.13834300    -2.06878766     1.51198938
 H                     1.85061607    -3.38505427     0.53699891
 H                    -2.29308965    -2.60008783     0.28225435
 H                    -1.26920614    -1.60727652     1.35677859
 H                    -1.59362220    -3.32238987     1.75932395
 H                     0.45032999    -4.69324382    -0.96160767
 H                    -0.61962184    -5.09703082     0.41117381
 H                    -1.30194826    -4.36186242    -1.06738251
 H                    -0.84596048    -2.13047095    -1.63568834
 H                     0.89338049    -2.46912308    -1.54221279
 H                     2.45302584    -0.85859119    -0.41361431
 H                     2.87528867     1.48631985     0.18224091
 H                     2.03359909     3.79341425     0.59502755
 H                     0.15162272     5.39437842     0.64869346
 H                    -2.15806549     4.64154921     0.12129638
 H                    -2.60083084     2.28055067    -0.45863995
 H                    -1.75698513    -0.01189600    -0.84209926
