    33
 geometry
 C                     0.95773477    -3.03064484     1.11694548
 N                    -0.21674709    -3.00519521     0.17482933
 C                    -1.44621045    -2.57348744     0.92797157
 C                    -0.43624040    -4.38965219    -0.37504308
 C                     0.06049846    -2.04814990    -1.02410523
 C                     0.30735425    -0.61583871    -0.65324656
 C                     1.63331243    -0.16526098    -0.38554945
 C                     1.86896520     1.14714685    -0.05322975
 C                     0.80732719     2.08822522     0.02599384
 C                     1.02409200     3.44935806     0.36491972
 C                    -0.02905432     4.33358135     0.41845096
 C                    -1.34825792     3.89999055     0.13252270
 C                    -1.59184959     2.58813698    -0.20099939
 C                    -0.52668784     1.64911060    -0.26053483
 C                    -0.73878385     0.28940767    -0.59966403
 H                     0.77326405    -3.78194835     1.88691975
 H                     1.07373380    -2.04585950     1.56844975
 H                     1.85694021    -3.28908868     0.55514235
 H                    -2.28201267    -2.50157183     0.22979783
 H                    -1.26112829    -1.60210909     1.38515564
 H                    -1.66686085    -3.31851564     1.69445829
 H                     0.45788607    -4.70494719    -0.91580272
 H                    -0.63096652    -5.07547398     0.45118483
 H                    -1.29157078    -4.37309767    -1.05280935
 H                    -0.81270927    -2.15761537    -1.67258852
 H                     0.92305430    -2.49037342    -1.53025249
 H                     2.46473538    -0.86122090    -0.46671354
 H                     2.88284117     1.48743495     0.14191103
 H                     2.03740291     3.77976122     0.57792372
 H                     0.14567894     5.37355889     0.67777406
 H                    -2.16614485     4.61297153     0.17602033
 H                    -2.60089079     2.25128086    -0.42576118
 H                    -1.75305882    -0.02626575    -0.83966116
