    30
 geometry
 C                     1.55483715     1.99530999     0.61178454
 N                     0.14374142     1.99277870     0.08710192
 C                    -0.80483168     1.83479456     1.24365830
 C                    -0.12431902     3.30696606    -0.59820883
 C                    -0.06046594     0.85501931    -0.96467924
 C                     0.12735705    -0.55122592    -0.46414596
 C                    -0.96903126    -1.37339061    -0.10495204
 C                    -2.41467764    -0.93059559    -0.20171189
 C                    -0.69651554    -2.68056574     0.32161117
 C                     0.60275461    -3.18135032     0.38214315
 C                     1.67590386    -2.38253711    -0.01271741
 C                     1.42992381    -1.08206346    -0.44137667
 H                     1.66581458     2.83134129     1.30419588
 H                     2.24455242     2.11324220    -0.22534782
 H                     1.74525925     1.05319852     1.12360741
 H                    -0.63912732     0.86005581     1.70177697
 H                    -0.61149233     2.63000957     1.96544173
 H                    -1.82761602     1.91019068     0.87431491
 H                     0.57816064     3.42705183    -1.42433736
 H                     0.00681512     4.11653074     0.12165974
 H                    -1.14740591     3.30895621    -0.97694328
 H                     0.65826111     1.09512174    -1.75243045
 H                    -1.06569323     1.02538930    -1.35308545
 H                    -2.64752004    -0.47245877    -1.17037759
 H                    -3.07973858    -1.79050899    -0.09112297
 H                    -2.69666976    -0.21454026     0.57942616
 H                    -1.52745773    -3.32399860     0.59646771
 H                     0.77264791    -4.20150158     0.71291886
 H                     2.68888392    -2.77221645    -0.00443978
 H                     2.26205270    -0.47353710    -0.78783553
