    30
 geometry
 C                     1.54781356     1.99340746     0.62015208
 N                     0.14268545     1.99160384     0.08041592
 C                    -0.81949732     1.83235814     1.22539318
 C                    -0.11859454     3.30588132    -0.60724072
 C                    -0.04986007     0.85438208    -0.97361546
 C                     0.13036641    -0.55161689    -0.46989626
 C                    -0.96596636    -1.36866531    -0.09889869
 C                    -2.41214515    -0.92353168    -0.17355699
 C                    -0.69381244    -2.67588656     0.32948793
 C                     0.60389808    -3.18017460     0.38379105
 C                     1.67700421    -2.38597067    -0.02098744
 C                     1.43188744    -1.08686235    -0.45293240
 H                     1.64819713     2.82158243     1.32359660
 H                     2.24594678     2.12383382    -0.20814291
 H                     1.73614884     1.04622559     1.12350891
 H                    -0.64534236     0.86575519     1.69726007
 H                    -0.64791952     2.63852905     1.94055408
 H                    -1.83808233     1.88757592     0.84107870
 H                     0.58412708     3.42063995    -1.43395170
 H                     0.01742025     4.11614989     0.11094727
 H                    -1.14202360     3.31286303    -0.98511157
 H                     0.68010793     1.09192848    -1.75169068
 H                    -1.04913672     1.02760023    -1.37562970
 H                    -2.63534108    -0.35389147    -1.08284853
 H                    -3.07308033    -1.79390013    -0.17653575
 H                    -2.70987280    -0.30860606     0.68485089
 H                    -1.52518724    -3.31596661     0.61116281
 H                     0.77285837    -4.19952836     0.71738773
 H                     2.68884970    -2.77855134    -0.01821559
 H                     2.26295418    -0.48169836    -0.80793663
