    30
 geometry
 C                     1.55520585     1.99518763     0.61124452
 N                     0.14390508     1.99263038     0.08729347
 C                    -0.80426247     1.83394672     1.24398810
 C                    -0.12468836     3.30685662    -0.59768182
 C                    -0.06054107     0.85514274    -0.96499356
 C                     0.12725016    -0.55123603    -0.46491788
 C                    -0.96916035    -1.37310046    -0.10523675
 C                    -2.41484583    -0.93053743    -0.20289511
 C                    -0.69671003    -2.67994120     0.32242181
 C                     0.60262745    -3.18065911     0.38339970
 C                     1.67576005    -2.38214223    -0.01214025
 C                     1.42977725    -1.08193561    -0.44163196
 H                     1.66619821     2.83054939     1.30448025
 H                     2.24446890     2.11430713    -0.22606590
 H                     1.74627767     1.05270198     1.12208612
 H                    -0.63824981     0.85910763     1.70174785
 H                    -0.61092004     2.62890669     1.96606892
 H                    -1.82717062     1.90933877     0.87500891
 H                     0.57717784     3.42708883    -1.42429333
 H                     0.00696306     4.11637023     0.12216890
 H                    -1.14806308     3.30892766    -0.97561265
 H                     0.65820485     1.09541969    -1.75263008
 H                    -1.06586118     1.02565108    -1.35301064
 H                    -2.64711353    -0.47265659    -1.17179608
 H                    -3.07977495    -1.79060070    -0.09263883
 H                    -2.69746539    -0.21444342     0.57797494
 H                    -1.52768366    -3.32319418     0.59768694
 H                     0.77252664    -4.20063264     0.71483606
 H                     2.68872924    -2.77188093    -0.00381641
 H                     2.26184171    -0.47370664    -0.78864906
