    30
 geometry
 C                     1.55696457     1.99608234     0.60895697
 N                     0.14492392     1.99203656     0.08728795
 C                    -0.80140374     1.83147488     1.24533052
 C                    -0.12665718     3.30650953    -0.59599451
 C                    -0.06027274     0.85548271    -0.96523666
 C                     0.12683381    -0.55108148    -0.46530991
 C                    -0.96988402    -1.37203074    -0.10458203
 C                    -2.41541825    -0.93065969    -0.20719219
 C                    -0.69766076    -2.67853112     0.32453941
 C                     0.60164602    -3.17916129     0.38736862
 C                     1.67497017    -2.38167770    -0.00964432
 C                     1.42924457    -1.08213664    -0.44130758
 H                     1.66711251     2.82962759     1.30457470
 H                     2.24471778     2.11923118    -0.22904240
 H                     1.75064722     1.05283629     1.11750656
 H                    -0.63186980     0.85763473     1.70394010
 H                    -0.60938803     2.62766522     1.96647458
 H                    -1.82494391     1.90385863     0.87751259
 H                     0.57108387     3.42678083    -1.42613613
 H                     0.00901943     4.11583631     0.12335890
 H                    -1.15200911     3.30927190    -0.96859227
 H                     0.65811599     1.09539610    -1.75338225
 H                    -1.06557886     1.02672670    -1.35297729
 H                    -2.64401925    -0.46912123    -1.17519563
 H                    -3.08012816    -1.79178716    -0.10364651
 H                    -2.70279334    -0.21811902     0.57534444
 H                    -1.52895875    -3.32140907     0.59989615
 H                     0.77130414    -4.19844372     0.72108982
 H                     2.68781585    -2.77172523    -0.00135134
 H                     2.26098960    -0.47510139    -0.79119411
