    30
 geometry
 C                     1.55630923     1.97699924     0.61188474
 N                     0.14441851     1.98592629     0.08876055
 C                    -0.80323415     1.82736221     1.24606025
 C                    -0.11426080     3.30803095    -0.58370814
 C                    -0.07519154     0.86019789    -0.96991797
 C                     0.12428208    -0.54893859    -0.48036742
 C                    -0.96923472    -1.37183567    -0.11555747
 C                    -2.41551605    -0.93408062    -0.21659318
 C                    -0.69218835    -2.67370601     0.32380803
 C                     0.60797986    -3.17005542     0.38924059
 C                     1.67864154    -2.37085522    -0.01163383
 C                     1.42806346    -1.07367145    -0.44966173
 H                     1.69618409     2.85121165     1.24996510
 H                     2.24906773     2.02088196    -0.22991269
 H                     1.72228071     1.06360693     1.18128494
 H                    -0.61186719     0.86977464     1.73011398
 H                    -0.63909342     2.64554593     1.94948960
 H                    -1.82706603     1.86145753     0.87304420
 H                     0.58623452     3.43192578    -1.41136753
 H                     0.02458303     4.11150250     0.14156872
 H                    -1.13793899     3.32377133    -0.96143688
 H                     0.62633341     1.11117530    -1.77015036
 H                    -1.08817902     1.03166085    -1.33764171
 H                    -2.65418655    -0.49740600    -1.19390857
 H                    -3.07533783    -1.79538914    -0.08406603
 H                    -2.70238682    -0.20144989     0.54768757
 H                    -1.52370863    -3.31454636     0.60482978
 H                     0.78004612    -4.18696431     0.72874692
 H                     2.69336254    -2.75565600     0.00007739
 H                     2.25600687    -0.46101026    -0.79824267
