    41
 geometry
 C                    -3.89160039    -0.02807790    -0.58953920
 C                    -2.45069881     0.45648741    -0.81659358
 C                    -1.47749471    -0.58096731    -0.24574850
 N                     0.03025004    -0.25447847    -0.22650451
 C                     0.39410743     0.51508910    -1.50509714
 C                     1.86744094     0.88685242    -1.75330076
 C                     2.34925177     2.22681820    -1.17894146
 C                     0.42831390     0.49746296     1.04402491
 C                    -0.24141255     1.84349476     1.31955840
 C                     0.39893957     2.49294213     2.55651086
 C                     0.79752125    -1.58988417    -0.24029664
 C                     0.43358042    -2.62581785     0.82686089
 C                     1.30238891    -3.87960364     0.63542902
 H                    -4.06789106    -1.00314244    -1.05725398
 H                    -4.12414584    -0.11541248     0.47750389
 H                    -4.59834503     0.68190640    -1.02764361
 H                    -2.28431464     0.58453624    -1.89077377
 H                    -2.32020290     1.43622702    -0.35016323
 H                    -1.73794384    -0.81789203     0.78832687
 H                    -1.57003758    -1.50114522    -0.82847343
 H                     0.03279300    -0.12938352    -2.31077793
 H                    -0.21705358     1.41693380    -1.50674011
 H                     1.95144580     0.94350444    -2.84547001
 H                     2.54526498     0.07712379    -1.46436444
 H                     3.34994573     2.44984881    -1.56089704
 H                     2.41335124     2.23763042    -0.08681521
 H                     1.69207499     3.04766088    -1.48750085
 H                     1.51201898     0.61588710     0.98432875
 H                     0.21812777    -0.18514888     1.86913276
 H                    -0.14225451     2.51915770     0.46379553
 H                    -1.31085552     1.70453121     1.50559959
 H                     0.30185854     1.85440305     3.44154061
 H                    -0.09191122     3.44444516     2.77826892
 H                     1.46426258     2.69563116     2.39987354
 H                     1.85426944    -1.33404523    -0.15271180
 H                     0.63379052    -2.00783063    -1.23795119
 H                     0.59994600    -2.22963291     1.83418516
 H                    -0.62170635    -2.90774852     0.75906305
 H                     1.05529422    -4.62539113     1.39578463
 H                     1.13749795    -4.33706214    -0.34623000
 H                     2.36923778    -3.64892232     0.72908425
