    41
 geometry
 C                    -3.89147160    -0.02919093    -0.58920188
 C                    -2.45071822     0.45514803    -0.81768951
 C                    -1.47727253    -0.58108876    -0.24483413
 N                     0.03045922    -0.25375093    -0.22580728
 C                     0.39362389     0.51594639    -1.50498631
 C                     1.86664096     0.88647917    -1.75547240
 C                     2.35280474     2.22330766    -1.17776459
 C                     0.42788478     0.49895548     1.04482005
 C                    -0.24259160     1.84449031     1.31996066
 C                     0.39608827     2.49444520     2.55737999
 C                     0.79871270    -1.58818367    -0.23910168
 C                     0.43530427    -2.62468909     0.82766759
 C                     1.30164820    -3.87962266     0.63314453
 H                    -4.06758250    -1.00546635    -1.05445718
 H                    -4.12372039    -0.11431196     0.47809643
 H                    -4.59854616     0.67946554    -1.02892325
 H                    -2.28486350     0.58082411    -1.89218684
 H                    -2.32000591     1.43577845    -0.35319385
 H                    -1.73773574    -0.81683769     0.78949797
 H                    -1.56893242    -1.50172662    -0.82699956
 H                     0.03135891    -0.12860271    -2.31011964
 H                    -0.21714665     1.41810698    -1.50558698
 H                     1.94686435     0.94754638    -2.84772990
 H                     2.54378485     0.07419152    -1.47215181
 H                     3.35293032     2.44523697    -1.56184580
 H                     2.42101062     2.23016296    -0.08586488
 H                     1.69666049     3.04683060    -1.48140841
 H                     1.51145389     0.61781255     0.98503196
 H                     0.21738607    -0.18405943     1.86947532
 H                    -0.14365916     2.52046611     0.46438471
 H                    -1.31225522     1.70497981     1.50454086
 H                     0.29633143     1.85708926     3.44297711
 H                    -0.09391226     3.44683894     2.77720932
 H                     1.46202091     2.69541476     2.40273059
 H                     1.85514530    -1.33142386    -0.15052240
 H                     0.63644384    -2.00595455    -1.23712823
 H                     0.60363904    -2.22971215     1.83512975
 H                    -0.62046903    -2.90518191     0.76130049
 H                     1.05718715    -4.62477182     1.39499504
 H                     1.13126169    -4.33745853    -0.34738733
 H                     2.36934224    -3.65049620     0.72110468
