    41
 geometry
 C                    -3.88805572    -0.01373116    -0.56733864
 C                    -2.44276720     0.44229839    -0.82892988
 C                    -1.47687166    -0.59484699    -0.24547165
 N                     0.02908719    -0.26323824    -0.21830200
 C                     0.39742655     0.51525129    -1.48772959
 C                     1.87490963     0.88919561    -1.71363067
 C                     2.31389051     2.26380925    -1.18134705
 C                     0.41568535     0.48272156     1.05539159
 C                    -0.22937170     1.84778470     1.30308645
 C                     0.41916866     2.51091587     2.52955986
 C                     0.80463756    -1.59814327    -0.23681460
 C                     0.43269806    -2.64694744     0.81354562
 C                     1.29907946    -3.90166000     0.60818640
 H                    -4.09149612    -0.99172853    -1.01796456
 H                    -4.10203032    -0.08428519     0.50490916
 H                    -4.59053593     0.70321032    -1.00082815
 H                    -2.29271552     0.53651388    -1.90893422
 H                    -2.29815681     1.43513568    -0.39407879
 H                    -1.74443583    -0.82958012     0.78629305
 H                    -1.55780378    -1.51113041    -0.83473350
 H                     0.04850346    -0.12188144    -2.30405518
 H                    -0.21958360     1.41237720    -1.48034779
 H                     1.99950715     0.89814726    -2.80263513
 H                     2.55479547     0.11163766    -1.35307903
 H                     3.32079244     2.49262231    -1.54219427
 H                     2.34494904     2.31665121    -0.08824741
 H                     1.65151976     3.05887196    -1.54262319
 H                     1.50410610     0.56904195     1.02892426
 H                     0.15427626    -0.18584189     1.87746002
 H                    -0.12570003     2.50648239     0.43520144
 H                    -1.30060689     1.72613540     1.49429775
 H                     0.30274023     1.89565224     3.42875532
 H                    -0.04881383     3.47918945     2.72563341
 H                     1.49082650     2.68288251     2.37679187
 H                     1.85752105    -1.33677025    -0.13161093
 H                     0.65505643    -1.99997559    -1.24243198
 H                     0.59689166    -2.26381576     1.82640663
 H                    -0.62306623    -2.92531988     0.73870184
 H                     1.04491515    -4.65611044     1.35740923
 H                     1.13752621    -4.34675277    -0.37982354
 H                     2.36660650    -3.67778135     0.71168107
