    41
 geometry
 C                    -3.88472771     0.05938569    -0.62312060
 C                    -2.42522815     0.45302628    -0.84352717
 C                    -1.49680866    -0.60538105    -0.24076852
 N                     0.02536587    -0.26889761    -0.21201109
 C                     0.36118497     0.52651095    -1.50040747
 C                     1.83521018     0.89053142    -1.73848996
 C                     2.24675264     2.27055052    -1.22834345
 C                     0.44698977     0.44179156     1.08751144
 C                    -0.21191140     1.79414789     1.35018748
 C                     0.43141629     2.47402272     2.55780931
 C                     0.84095816    -1.60874847    -0.24622949
 C                     0.46134653    -2.64536801     0.81763222
 C                     1.32393094    -3.89691834     0.66127272
 H                    -4.10923873    -0.91050623    -1.07974435
 H                    -4.12387722     0.00548314     0.44412136
 H                    -4.54493201     0.80391638    -1.07763056
 H                    -2.23797630     0.52806964    -1.92026461
 H                    -2.24474054     1.43866189    -0.41051025
 H                    -1.78207550    -0.83517909     0.79077692
 H                    -1.59401002    -1.51652693    -0.84139642
 H                    -0.00464187    -0.11955879    -2.30647009
 H                    -0.25308083     1.42866930    -1.49687813
 H                     1.97786645     0.90356480    -2.82676605
 H                     2.52987881     0.13706822    -1.36258290
 H                     3.25107496     2.51395887    -1.58958641
 H                     2.26840160     2.32908355    -0.13815494
 H                     1.57093543     3.04575104    -1.60452991
 H                     1.53670150     0.52822143     1.05543720
 H                     0.19263121    -0.23069190     1.91118169
 H                    -0.13346875     2.46132868     0.48791558
 H                    -1.27505010     1.65540221     1.56979639
 H                     0.33892014     1.85420340     3.45574566
 H                    -0.05756178     3.43231037     2.75602618
 H                     1.49545590     2.66704895     2.38445165
 H                     1.89008550    -1.32644594    -0.13379679
 H                     0.70011578    -2.00374340    -1.25789401
 H                     0.61135341    -2.24866790     1.82606994
 H                    -0.58923516    -2.93918662     0.73441643
 H                     1.05233156    -4.63392458     1.42269314
 H                     1.17790999    -4.36097385    -0.31995324
 H                     2.38685240    -3.66500282     0.78509434
