    41
 geometry
 C                    -3.89273350    -0.03246680    -0.58331732
 C                    -2.45274430     0.44977271    -0.82047140
 C                    -1.47726002    -0.58442560    -0.24763680
 N                     0.02864786    -0.25116382    -0.22583803
 C                     0.39053391     0.52072325    -1.50414886
 C                     1.86373931     0.88387225    -1.75993850
 C                     2.36484109     2.21193917    -1.17446424
 C                     0.42021996     0.50173733     1.04610243
 C                    -0.24370797     1.85211380     1.31379914
 C                     0.38565452     2.49463407     2.56070414
 C                     0.80265311    -1.58280321    -0.23678580
 C                     0.44320426    -2.61985566     0.83028587
 C                     1.30324221    -3.87811693     0.62687535
 H                    -4.07155240    -1.00980942    -1.04530493
 H                    -4.12061511    -0.11494095     0.48516304
 H                    -4.60148571     0.67448048    -1.02316833
 H                    -2.29160161     0.56997118    -1.89620971
 H                    -2.31944163     1.43240437    -0.36073915
 H                    -1.73901834    -0.82210693     0.78583131
 H                    -1.56512450    -1.50480995    -0.83044664
 H                     0.01998557    -0.11744240    -2.31029692
 H                    -0.21522203     1.42617086    -1.49867083
 H                     1.93599671     0.95536785    -2.85219594
 H                     2.53879928     0.06459231    -1.49232706
 H                     3.36293082     2.42964298    -1.56613726
 H                     2.44325226     2.20783660    -0.08317210
 H                     1.71183668     3.04295839    -1.46417888
 H                     1.50510317     0.61446891     0.99591906
 H                     0.20132558    -0.17894314     1.87098910
 H                    -0.12520023     2.52940802     0.46189193
 H                    -1.31641498     1.72208549     1.48616716
 H                     0.26213934     1.86110735     3.44597213
 H                    -0.09322243     3.45505430     2.77002516
 H                     1.45674664     2.67946080     2.42229995
 H                     1.85776190    -1.32133426    -0.14741062
 H                     0.64381820    -2.00146172    -1.23489785
 H                     0.62428970    -2.22656771     1.83626094
 H                    -0.61427552    -2.89592095     0.77448984
 H                     1.06976565    -4.61903003     1.39634078
 H                     1.11544123    -4.34033239    -0.34838515
 H                     2.37279656    -3.65128324     0.69610820
