    41
 geometry
 C                    -3.89126913    -0.02821685    -0.58959522
 C                    -2.45040728     0.45642914    -0.81650189
 C                    -1.47734303    -0.58087406    -0.24513726
 N                     0.03030385    -0.25420306    -0.22629960
 C                     0.39367394     0.51478679    -1.50545275
 C                     1.86664968     0.88657566    -1.75438552
 C                     2.34992505     2.22492034    -1.17760002
 C                     0.42821059     0.49838791     1.04404649
 C                    -0.24158519     1.84423300     1.31970591
 C                     0.39850618     2.49410608     2.55655510
 C                     0.79774204    -1.58923036    -0.23962198
 C                     0.43365377    -2.62580981     0.82680852
 C                     1.30213377    -3.87960840     0.63439063
 H                    -4.06667173    -1.00359311    -1.05699385
 H                    -4.12414204    -0.11617812     0.47736724
 H                    -4.59830694     0.68069846    -1.02894018
 H                    -2.28431059     0.58427398    -1.89078589
 H                    -2.31952008     1.43602282    -0.35001389
 H                    -1.73751409    -0.81757525     0.78912689
 H                    -1.56977064    -1.50120333    -0.82781965
 H                     0.03259322    -0.13047276    -2.31068246
 H                    -0.21768104     1.41661562    -1.50710965
 H                     1.94892493     0.94594708    -2.84661936
 H                     2.54461732     0.07591001    -1.46846228
 H                     3.35029710     2.44784910    -1.56044575
 H                     2.41521563     2.23364914    -0.08552448
 H                     1.69298399     3.04690296    -1.48352210
 H                     1.51181452     0.61684974     0.98429679
 H                     0.21791904    -0.18438232     1.86882442
 H                    -0.14296098     2.52010522     0.46404656
 H                    -1.31104215     1.70515482     1.50566731
 H                     0.30054355     1.85629277     3.44202092
 H                    -0.09183374     3.44606036     2.77750711
 H                     1.46406266     2.69592484     2.40034955
 H                     1.85418979    -1.33282770    -0.15107070
 H                     0.63577425    -2.00714897    -1.23771866
 H                     0.59970340    -2.23044095     1.83451101
 H                    -0.62161707    -2.90771133     0.75857063
 H                     1.05663055    -4.62485020     1.39575807
 H                     1.13590595    -4.33752747    -0.34685482
 H                     2.36910619    -3.64885444     0.72668806
