    41
 geometry
 C                    -3.88726011    -0.01193199    -0.56753890
 C                    -2.44221359     0.44475090    -0.82848014
 C                    -1.47604700    -0.59510394    -0.25011713
 N                     0.02994300    -0.26355054    -0.22211145
 C                     0.39550530     0.51467138    -1.49213314
 C                     1.87270435     0.89061647    -1.71835545
 C                     2.31414393     2.26172597    -1.18151291
 C                     0.41593211     0.48343235     1.05196812
 C                    -0.23070667     1.84727695     1.30285317
 C                     0.41472621     2.50589561     2.53290679
 C                     0.80552480    -1.59657071    -0.23777160
 C                     0.43620446    -2.64043087     0.81826534
 C                     1.29772403    -3.89815113     0.61259237
 H                    -4.09090816    -0.98751203    -1.02294113
 H                    -4.10016995    -0.08768050     0.50452755
 H                    -4.59034041     0.70669983    -0.99754714
 H                    -2.28630520     0.54257504    -1.90732034
 H                    -2.28736478     1.43291189    -0.38677196
 H                    -1.74337572    -0.83399302     0.78080421
 H                    -1.55870179    -1.51025045    -0.84086113
 H                     0.04571279    -0.12424985    -2.30680394
 H                    -0.22091732     1.41264629    -1.48475058
 H                     1.99380452     0.90185374    -2.80767840
 H                     2.55222247     0.11001063    -1.36310229
 H                     3.32168334     2.49081358    -1.54081519
 H                     2.34523902     2.30835732    -0.08829652
 H                     1.64999195     3.05888540    -1.53455958
 H                     1.50413725     0.57330036     1.02356851
 H                     0.15913098    -0.18752312     1.87377165
 H                    -0.12441617     2.50841683     0.43715341
 H                    -1.30254095     1.72529813     1.48985953
 H                     0.29560328     1.88772939     3.42972856
 H                    -0.05361529     3.47371789     2.73122477
 H                     1.48658448     2.67815287     2.38318473
 H                     1.86100836    -1.34411917    -0.13322294
 H                     0.65261771    -2.01235173    -1.23757580
 H                     0.60676170    -2.25400937     1.82887112
 H                    -0.62071859    -2.91558628     0.74948271
 H                     1.04744222    -4.65013181     1.36582901
 H                     1.13005094    -4.34428061    -0.37376901
 H                     2.36630774    -3.67532436     0.70652838
