    41
 geometry
 C                    -3.89287312    -0.04065390    -0.57840113
 C                    -2.45031439     0.42741586    -0.83086540
 C                    -1.47555393    -0.59765242    -0.24081948
 N                     0.02988648    -0.25502937    -0.21332584
 C                     0.39801781     0.52716593    -1.48148925
 C                     1.87592096     0.89623775    -1.70916134
 C                     2.31155959     2.27731429    -1.18729772
 C                     0.42797493     0.48441659     1.06058212
 C                    -0.21279837     1.85054355     1.30971756
 C                     0.44204462     2.51687662     2.53140810
 C                     0.80309652    -1.59711070    -0.24147271
 C                     0.41892104    -2.64381377     0.80681656
 C                     1.27768163    -3.90480800     0.60986319
 H                    -4.08578414    -1.01984147    -1.03200449
 H                    -4.11492575    -0.11085973     0.49241543
 H                    -4.59670920     0.66943447    -1.01981141
 H                    -2.29605267     0.51795109    -1.91060835
 H                    -2.30417271     1.42147684    -0.39968386
 H                    -1.74213275    -0.83045845     0.79194390
 H                    -1.54618528    -1.51314406    -0.83338488
 H                     0.03515030    -0.11837762    -2.28501899
 H                    -0.20942962     1.42936290    -1.48570546
 H                     2.00830729     0.90370713    -2.79752876
 H                     2.55834556     0.12597461    -1.33920288
 H                     3.31971082     2.51025712    -1.54193424
 H                     2.33365343     2.33691732    -0.09430915
 H                     1.64372815     3.06626979    -1.55208079
 H                     1.51669351     0.56203987     1.03167693
 H                     0.16179380    -0.18056615     1.88351003
 H                    -0.11368904     2.51009965     0.44183393
 H                    -1.28240713     1.72995902     1.51095223
 H                     0.33034815     1.90322547     3.43233122
 H                    -0.02486036     3.48529003     2.72732729
 H                     1.51338254     2.68819734     2.37270579
 H                     1.85431381    -1.33599264    -0.12464617
 H                     0.64963804    -1.99222578    -1.24853797
 H                     0.57878955    -2.26233201     1.82062046
 H                    -0.63799114    -2.91784623     0.72580155
 H                     1.01437374    -4.65668544     1.35797478
 H                     1.12177083    -4.34910961    -0.37981193
 H                     2.34588173    -3.68663853     0.71870437
