    41
 geometry
 C                    -3.89196021    -0.02943079    -0.58873233
 C                    -2.45120581     0.45456998    -0.81820451
 C                    -1.47745046    -0.58113440    -0.24477662
 N                     0.03034738    -0.25344811    -0.22551696
 C                     0.39316095     0.51680673    -1.50463795
 C                     1.86631681     0.88610163    -1.75653712
 C                     2.35516611     2.22106368    -1.17686378
 C                     0.42750693     0.49931597     1.04524509
 C                    -0.24296219     1.84506405     1.31935473
 C                     0.39414911     2.49469710     2.55766916
 C                     0.79941491    -1.58739015    -0.23880900
 C                     0.43670272    -2.62400831     0.82815359
 C                     1.30170804    -3.87962744     0.63203663
 H                    -4.06800323    -1.00627800    -1.05276072
 H                    -4.12352980    -0.11399130     0.47873341
 H                    -4.59938260     0.67865871    -1.02886766
 H                    -2.28580251     0.57922484    -1.89282681
 H                    -2.32020929     1.43575478    -0.35483014
 H                    -1.73815989    -0.81659683     0.78946764
 H                    -1.56865258    -1.50176068    -0.82685361
 H                     0.02938653    -0.12674872    -2.30978328
 H                    -0.21664197     1.41951981    -1.50418245
 H                     1.94461738     0.94953419    -2.84874869
 H                     2.54271664     0.07213502    -1.47627401
 H                     3.35482215     2.44295308    -1.56222162
 H                     2.42542047     2.22559491    -0.08505897
 H                     1.69947978     3.04594745    -1.47788498
 H                     1.51113770     0.61811924     0.98558364
 H                     0.21648938    -0.18347639     1.87008920
 H                    -0.14256599     2.52089481     0.46380140
 H                    -1.31300574     1.70594493     1.50209536
 H                     0.29178445     1.85785085     3.44333705
 H                    -0.09500358     3.44785554     2.77609625
 H                     1.46065560     2.69415698     2.40508177
 H                     1.85565161    -1.32937722    -0.15054985
 H                     0.63737188    -2.00595299    -1.23641745
 H                     0.60686353    -2.22922255     1.83537737
 H                    -0.61938859    -2.90363243     0.76338115
 H                     1.05944143    -4.62394296     1.39544380
 H                     1.12905318    -4.33797394    -0.34785196
 H                     2.36966497    -3.65078370     0.71732644
