    41
 geometry
 C                    -3.88885098    -0.01707037    -0.56594610
 C                    -2.44400048     0.44280713    -0.82498821
 C                    -1.47499304    -0.59022234    -0.23943039
 N                     0.03079222    -0.25862795    -0.21482844
 C                     0.40141997     0.51435316    -1.48767045
 C                     1.87842629     0.88471181    -1.72050009
 C                     2.31905267     2.26370636    -1.19715712
 C                     0.41382710     0.48204188     1.06247402
 C                    -0.23086009     1.84723860     1.30894891
 C                     0.41225933     2.50924862     2.53976210
 C                     0.80602948    -1.59565702    -0.23927067
 C                     0.42997709    -2.64521022     0.80861248
 C                     1.29657425    -3.90086312     0.60687753
 H                    -4.08852229    -0.99671579    -1.01530801
 H                    -4.10503882    -0.08739859     0.50600617
 H                    -4.59237840     0.69677659    -1.00221352
 H                    -2.28906606     0.53341439    -1.90455487
 H                    -2.29246775     1.43560194    -0.39228252
 H                    -1.74045827    -0.82297356     0.79330919
 H                    -1.55343773    -1.50587195    -0.83022917
 H                     0.04748269    -0.12522256    -2.29962909
 H                    -0.20901416     1.41485746    -1.49271889
 H                     2.00271148     0.89076545    -2.80963458
 H                     2.56031822     0.11095523    -1.35618162
 H                     3.32510278     2.49247174    -1.56017201
 H                     2.35136942     2.32322454    -0.10423493
 H                     1.65496127     3.05612989    -1.56135036
 H                     1.50233311     0.56455751     1.04141772
 H                     0.14446017    -0.18657186     1.88145980
 H                    -0.12233908     2.50811948     0.44316357
 H                    -1.30285053     1.72609504     1.49665862
 H                     0.29098621     1.89339464     3.43799157
 H                    -0.05584168     3.47750253     2.73426199
 H                     1.48518211     2.68052865     2.39297792
 H                     1.85668265    -1.33044591    -0.12738252
 H                     0.65790654    -1.99305843    -1.24636946
 H                     0.59058494    -2.26297216     1.82229508
 H                    -0.62576186    -2.92395932     0.73047822
 H                     1.03999905    -4.65545378     1.35479683
 H                     1.13841272    -4.34583327    -0.38199209
 H                     2.36413469    -3.67738708     0.71163663
