    41
 geometry
 C                    -3.89301254    -0.03065269    -0.59162605
 C                    -2.45252116     0.45700136    -0.81473173
 C                    -1.47872560    -0.58035952    -0.24465573
 N                     0.02902856    -0.25366249    -0.22625933
 C                     0.39177981     0.51676249    -1.50464333
 C                     1.86552932     0.88508663    -1.75551505
 C                     2.35164844     2.22333582    -1.18095850
 C                     0.42791568     0.49805440     1.04431017
 C                    -0.23825664     1.84593616     1.31904344
 C                     0.40000217     2.49165917     2.55901968
 C                     0.79614980    -1.58883413    -0.24092876
 C                     0.43194768    -2.62571217     0.82529423
 C                     1.30625919    -3.87624410     0.63801989
 H                    -4.06643004    -1.00493645    -1.06204967
 H                    -4.12751053    -0.12133531     0.47471832
 H                    -4.60025870     0.67886583    -1.02966264
 H                    -2.28479051     0.58827378    -1.88827533
 H                    -2.32423563     1.43558922    -0.34532825
 H                    -1.73844554    -0.81782236     0.78949013
 H                    -1.57140884    -1.50010857    -0.82805484
 H                     0.02725447    -0.12564616    -2.31049569
 H                    -0.21707312     1.42018884    -1.50323840
 H                     1.94734586     0.94241439    -2.84783377
 H                     2.54196836     0.07351387    -1.46867023
 H                     3.35229287     2.44397577    -1.56440680
 H                     2.41772906     2.23309650    -0.08890432
 H                     1.69620705     3.04618714    -1.48786120
 H                     1.51195967     0.61372949     0.98511399
 H                     0.21530254    -0.18361146     1.86952960
 H                    -0.13350349     2.52243674     0.46462949
 H                    -1.30887195     1.71068302     1.50076805
 H                     0.30141908     1.85057495     3.44206776
 H                    -0.09110262     3.44255438     2.78281783
 H                     1.46560586     2.69464688     2.40470153
 H                     1.85286972    -1.33314948    -0.15297218
 H                     0.63287876    -2.00630445    -1.23889109
 H                     0.59239479    -2.22853238     1.83317897
 H                    -0.62197103    -2.91166393     0.75308484
 H                     1.05552741    -4.62462504     1.39463844
 H                     1.15061833    -4.33205744    -0.34592149
 H                     2.37158870    -3.64232137     0.74054126
