    41
 geometry
 C                    -3.89069032    -0.02421747    -0.57035327
 C                    -2.44992021     0.44604815    -0.82569001
 C                    -1.47414042    -0.59267901    -0.26068368
 N                     0.03140592    -0.25753393    -0.22829151
 C                     0.39892333     0.51696179    -1.50255926
 C                     1.87559764     0.88873591    -1.74010492
 C                     2.33853771     2.24154439    -1.18245310
 C                     0.41685803     0.49258437     1.04831781
 C                    -0.23618560     1.85043864     1.30993312
 C                     0.39574695     2.49341438     2.55392835
 C                     0.80346130    -1.58858893    -0.23966838
 C                     0.44747579    -2.62073606     0.83386448
 C                     1.29200116    -3.88759671     0.62263016
 H                    -4.08480444    -0.99725742    -1.03517111
 H                    -4.10299555    -0.11092823     0.50105186
 H                    -4.59958967     0.69153355    -0.99538908
 H                    -2.29795134     0.56021550    -1.90368993
 H                    -2.30527558     1.43019292    -0.37345921
 H                    -1.74037214    -0.84333893     0.76858642
 H                    -1.55656215    -1.50677952    -0.85474986
 H                     0.03897919    -0.12086704    -2.31392750
 H                    -0.21224125     1.41848966    -1.49947155
 H                     1.98063848     0.91746114    -2.83125157
 H                     2.55119544     0.09095281    -1.41523649
 H                     3.34281069     2.46709734    -1.55346908
 H                     2.38633780     2.26754840    -0.08964597
 H                     1.67947597     3.05245529    -1.51243091
 H                     1.50352449     0.59370539     1.00881662
 H                     0.17835848    -0.18437208     1.87023312
 H                    -0.11671297     2.52146179     0.45329525
 H                    -1.31018358     1.72787851     1.48069053
 H                     0.26443511     1.86497857     3.44176071
 H                    -0.07445136     3.45905163     2.75864577
 H                     1.46912716     2.66700630     2.41777356
 H                     1.85960982    -1.32921127    -0.15835051
 H                     0.63843692    -2.01167525    -1.23513726
 H                     0.64333048    -2.22665433     1.83669545
 H                    -0.61344941    -2.88614790     0.79010884
 H                     1.05539205    -4.62846626     1.39110730
 H                     1.09474760    -4.34360389    -0.35370751
 H                     2.36422371    -3.67211487     0.68653551
