    41
 geometry
 C                    -3.89269222    -0.03155120    -0.58536346
 C                    -2.45217168     0.45051159    -0.82018281
 C                    -1.47748507    -0.58374643    -0.24575226
 N                     0.02895385    -0.25207066    -0.22542984
 C                     0.39029132     0.51998176    -1.50299892
 C                     1.86384063     0.88376194    -1.75884008
 C                     2.36375000     2.21255400    -1.17422501
 C                     0.42150931     0.50092956     1.04593920
 C                    -0.24440390     1.85018660     1.31558804
 C                     0.38781883     2.49517586     2.55951995
 C                     0.80245021    -1.58341229    -0.23775891
 C                     0.44003096    -2.62149077     0.82759139
 C                     1.30400250    -3.87757951     0.62812517
 H                    -4.07110166    -1.01023057    -1.04477008
 H                    -4.12101300    -0.11159267     0.48316277
 H                    -4.60090920     0.67614720    -1.02477075
 H                    -2.28856485     0.57100882    -1.89562081
 H                    -2.31996454     1.43338299    -0.36079074
 H                    -1.73927001    -0.81915525     0.78833992
 H                    -1.56666111    -1.50523819    -0.82696874
 H                     0.02166953    -0.11976166    -2.30901792
 H                    -0.21612967     1.42515340    -1.49832614
 H                     1.93493225     0.95450114    -2.85139721
 H                     2.53862130     0.06437759    -1.49111402
 H                     3.36168824     2.43037360    -1.56613478
 H                     2.44204094     2.20970635    -0.08293949
 H                     1.71053674     3.04289890    -1.46514492
 H                     1.50582656     0.61619384     0.99313358
 H                     0.20531120    -0.18017501     1.87072689
 H                    -0.13149956     2.52639510     0.46201402
 H                    -1.31627914     1.71743413     1.49156545
 H                     0.27042003     1.86100444     3.44514087
 H                    -0.09338144     3.45386309     2.77112105
 H                     1.45766559     2.68373706     2.41636906
 H                     1.85708903    -1.32098626    -0.14582371
 H                     0.64516038    -2.00206322    -1.23637559
 H                     0.61486313    -2.22803230     1.83462098
 H                    -0.61655781    -2.89967392     0.76615193
 H                     1.06837569    -4.61993121     1.39541813
 H                     1.12392353    -4.33814152    -0.34939304
 H                     2.37241833    -3.64745895     0.70369408
