    41
 geometry
 C                    -3.88570292    -0.01025452    -0.56889749
 C                    -2.44077391     0.44513668    -0.82713449
 C                    -1.47436389    -0.59834190    -0.25506302
 N                     0.03249873    -0.26643690    -0.22690425
 C                     0.39959871     0.51275587    -1.49778658
 C                     1.87557720     0.89625971    -1.72313466
 C                     2.31464784     2.26534139    -1.18644635
 C                     0.41648425     0.48148537     1.05091970
 C                    -0.23229037     1.84320019     1.30769744
 C                     0.41253900     2.49633918     2.53916268
 C                     0.80480371    -1.59828251    -0.23998461
 C                     0.43606206    -2.63550090     0.82317232
 C                     1.29388158    -3.89511029     0.62324126
 H                    -4.09040657    -0.98234207    -1.03054073
 H                    -4.09722364    -0.09185630     0.50289207
 H                    -4.58826701     0.71227781    -0.99381940
 H                    -2.29134903     0.55172894    -1.90612278
 H                    -2.28457116     1.43029184    -0.38034670
 H                    -1.74164950    -0.84235067     0.77513870
 H                    -1.56158428    -1.51326146    -0.84621077
 H                     0.04497390    -0.12699211    -2.31015930
 H                    -0.21646525     1.41179724    -1.49720151
 H                     1.99472355     0.90418108    -2.81273858
 H                     2.55552413     0.11485113    -1.36961358
 H                     3.32137024     2.49583611    -1.54810737
 H                     2.34524957     2.31183303    -0.09378394
 H                     1.64892649     3.06095522    -1.53917101
 H                     1.50430105     0.57785630     1.01964247
 H                     0.16676694    -0.19417992     1.87153574
 H                    -0.12465245     2.50695119     0.44442699
 H                    -1.30420753     1.72080456     1.49219868
 H                     0.29281631     1.87424339     3.43303687
 H                    -0.05629347     3.46340360     2.74187444
 H                     1.48380903     2.66946191     2.38915633
 H                     1.86039928    -1.33948303    -0.14408648
 H                     0.65182173    -2.01351311    -1.24104942
 H                     0.61099618    -2.24288410     1.83066923
 H                    -0.62162620    -2.90817247     0.75958886
 H                     1.04425933    -4.64297927     1.38125378
 H                     1.12164565    -4.34536021    -0.36014137
 H                     2.36285598    -3.67270261     0.71192007
