    41
 geometry
 C                    -3.89306154    -0.03106938    -0.59177054
 C                    -2.45264727     0.45687692    -0.81473618
 C                    -1.47876240    -0.58028603    -0.24444664
 N                     0.02894451    -0.25338766    -0.22606341
 C                     0.39140134     0.51706722    -1.50451532
 C                     1.86513314     0.88480926    -1.75624886
 C                     2.35269519     2.22220116    -1.18092919
 C                     0.42774881     0.49843816     1.04448914
 C                    -0.23829082     1.84640739     1.31902239
 C                     0.39938408     2.49180787     2.55946448
 C                     0.79625644    -1.58844658    -0.24077787
 C                     0.43216075    -2.62552006     0.82529256
 C                     1.30654377    -3.87596977     0.63778374
 H                    -4.06609268    -1.00552210    -1.06195845
 H                    -4.12765016    -0.12171282     0.47455389
 H                    -4.60046539     0.67815911    -1.03005582
 H                    -2.28480134     0.58806088    -1.88827951
 H                    -2.32465448     1.43553580    -0.34538649
 H                    -1.73852268    -0.81766382     0.78970065
 H                    -1.57132189    -1.50010688    -0.82775501
 H                     0.02619235    -0.12508829    -2.31026695
 H                    -0.21708104     1.42074713    -1.50269695
 H                     1.94587136     0.94321676    -2.84860431
 H                     2.54133880     0.07248030    -1.47099235
 H                     3.35320675     2.44247847    -1.56496090
 H                     2.41983600     2.23086505    -0.08894062
 H                     1.69751474     3.04579244    -1.48638642
 H                     1.51178622     0.61407750     0.98535521
 H                     0.21506459    -0.18312986     1.86976135
 H                    -0.13283007     2.52301916     0.46478129
 H                    -1.30906405     1.71145940     1.50004354
 H                     0.30002662     1.85068045     3.44239013
 H                    -0.09155391     3.44284781     2.78302482
 H                     1.46514362     2.69446884     2.40584259
 H                     1.85291210    -1.33254252    -0.15271661
 H                     0.63323458    -2.00586783    -1.23880623
 H                     0.59261744    -2.22846864     1.83322096
 H                    -0.62173453    -2.91155000     0.75310351
 H                     1.05606820    -4.62432858     1.39450207
 H                     1.15068517    -4.33186335    -0.34609441
 H                     2.37187291    -3.64198553     0.74013997
