    41
 geometry
 C                    -3.89012268    -0.02451303    -0.57689394
 C                    -2.44553477     0.43967631    -0.83066301
 C                    -1.47510999    -0.59027300    -0.24186383
 N                     0.03026391    -0.25693112    -0.21317420
 C                     0.39817767     0.51780262    -1.48533071
 C                     1.87423434     0.88978071    -1.72175162
 C                     2.31377702     2.27097100    -1.20139316
 C                     0.41877472     0.48006587     1.06410183
 C                    -0.22176877     1.84641467     1.31458862
 C                     0.42701328     2.50541274     2.54448256
 C                     0.80468068    -1.59520239    -0.23673057
 C                     0.42562603    -2.64341283     0.81138418
 C                     1.29214623    -3.90000756     0.61338386
 H                    -4.08582147    -1.00427788    -1.02803788
 H                    -4.11064670    -0.09568732     0.49419164
 H                    -4.59357645     0.68731813    -1.01621075
 H                    -2.29653390     0.53287374    -1.91082399
 H                    -2.30365804     1.43481400    -0.40005674
 H                    -1.74256938    -0.82290847     0.79036130
 H                    -1.54941614    -1.50558560    -0.83373672
 H                     0.04184528    -0.12230290    -2.29568497
 H                    -0.20813056     1.42057199    -1.49393896
 H                     1.99743732     0.89560178    -2.81103653
 H                     2.55844720     0.11831277    -1.35705274
 H                     3.31891780     2.50236430    -1.56518379
 H                     2.34629409     2.33206206    -0.10847899
 H                     1.64621765     3.06119181    -1.56415880
 H                     1.50738504     0.55881231     1.04044698
 H                     0.14855485    -0.18873297     1.88242802
 H                    -0.11470747     2.50870415     0.44961972
 H                    -1.29331013     1.72725651     1.50629329
 H                     0.30745466     1.88855913     3.44228959
 H                    -0.03828137     3.47430381     2.74183990
 H                     1.49998305     2.67458826     2.39460609
 H                     1.85556032    -1.33437135    -0.11871091
 H                     0.65762208    -1.99792390    -1.24164091
 H                     0.58389670    -2.26017307     1.82500262
 H                    -0.63014967    -2.92192648     0.73116731
 H                     1.03364918    -4.65374166     1.36132481
 H                     1.13687652    -4.34576487    -0.37571146
 H                     2.35960710    -3.67673489     0.71983611
