    41
 geometry
 C                    -3.88897299    -0.02272530    -0.57084761
 C                    -2.44681849     0.44513724    -0.82300182
 C                    -1.47330412    -0.59555224    -0.25830315
 N                     0.03216276    -0.25986902    -0.22606346
 C                     0.39734147     0.51442433    -1.50011072
 C                     1.87363421     0.89015747    -1.73757595
 C                     2.33169516     2.24362358    -1.17776497
 C                     0.41722694     0.49162006     1.04962060
 C                    -0.23346539     1.85252138     1.30591096
 C                     0.39665095     2.49818807     2.54903214
 C                     0.80555199    -1.59043045    -0.23921024
 C                     0.44762266    -2.62436300     0.83133319
 C                     1.29238189    -3.89077309     0.61859746
 H                    -4.08592795    -0.99464799    -1.03680164
 H                    -4.10319694    -0.10895398     0.50016164
 H                    -4.59561346     0.69649888    -0.99403879
 H                    -2.29446036     0.56071781    -1.90062465
 H                    -2.29898899     1.42840479    -0.36949798
 H                    -1.73968795    -0.84782058     0.77034132
 H                    -1.55560158    -1.50840132    -0.85375997
 H                     0.03612611    -0.12391373    -2.31043429
 H                    -0.21209238     1.41716124    -1.49997828
 H                     1.97768774     0.92080132    -2.82850324
 H                     2.55167792     0.09491597    -1.41206509
 H                     3.33482311     2.47185177    -1.55019706
 H                     2.38146705     2.26854934    -0.08492485
 H                     1.67234962     3.05367771    -1.50939555
 H                     1.50421156     0.59173267     1.01224933
 H                     0.17476863    -0.18277938     1.87279596
 H                    -0.11220537     2.52003662     0.44690680
 H                    -1.30809570     1.73233755     1.47484519
 H                     0.26218051     1.87327963     3.43892052
 H                    -0.07145240     3.46589823     2.74924973
 H                     1.47084438     2.66831006     2.41532409
 H                     1.86213411    -1.33285440    -0.15589059
 H                     0.64200967    -2.01110753    -1.23599206
 H                     0.64233908    -2.23189716     1.83511832
 H                    -0.61331256    -2.88913650     0.78567943
 H                     1.05331243    -4.63069449     1.38729409
 H                     1.09325104    -4.34921387    -0.35618687
 H                     2.36485089    -3.67772433     0.68687125
